data_ADARAA_clean_PM
_symmetry_space_group_name_H-M	'P1'
_cell_length_a	38.805000
_cell_length_b	38.805000
_cell_length_c	38.805000
_cell_angle_alpha	90.000000
_cell_angle_beta	90.000000
_cell_angle_gamma	90.000000
_symmetry_Int_Tables_number 1

loop_
_symmetry_equiv_pos_as_xyz
'x,y,z'

loop_
_atom_site_label
_atom_site_type_symbol
_atom_site_fract_x
_atom_site_fract_y
_atom_site_fract_z
_atom_site_charge
Co1	Co	0.950340	0.366260	0.973910	1.1564300000
Co2	Co	0.959950	0.225340	0.468590	1.0694600000
Co3	Co	0.966440	0.314490	0.704000	0.7723620000
Co4	Co	0.549660	0.633740	0.473910	1.1564300000
Co5	Co	0.540050	0.774660	0.968590	1.0694600000
Co6	Co	0.533560	0.685510	0.204000	0.7723620000
Co7	Co	0.049660	0.866260	0.526090	1.1564300000
Co8	Co	0.040050	0.725340	0.031410	1.0694600000
Co9	Co	0.033560	0.814490	0.796000	0.7723620000
Co10	Co	0.450340	0.133740	0.026090	1.1564300000
Co11	Co	0.459950	0.274660	0.531410	1.0694600000
Co12	Co	0.466440	0.185510	0.296000	0.7723620000
Co13	Co	0.973910	0.950340	0.366260	1.1564300000
Co14	Co	0.468590	0.959950	0.225340	1.0694600000
Co15	Co	0.704000	0.966440	0.314490	0.7723620000
Co16	Co	0.473910	0.549660	0.633740	1.1564300000
Co17	Co	0.968590	0.540050	0.774660	1.0694600000
Co18	Co	0.204000	0.533560	0.685510	0.7723620000
Co19	Co	0.526090	0.049660	0.866260	1.1564300000
Co20	Co	0.031410	0.040050	0.725340	1.0694600000
Co21	Co	0.796000	0.033560	0.814490	0.7723620000
Co22	Co	0.026090	0.450340	0.133740	1.1564300000
Co23	Co	0.531410	0.459950	0.274660	1.0694600000
Co24	Co	0.296000	0.466440	0.185510	0.7723620000
Co25	Co	0.366260	0.973910	0.950340	1.1564300000
Co26	Co	0.225340	0.468590	0.959950	1.0694600000
Co27	Co	0.314490	0.704000	0.966440	0.7723620000
Co28	Co	0.633740	0.473910	0.549660	1.1564300000
Co29	Co	0.774660	0.968590	0.540050	1.0694600000
Co30	Co	0.685510	0.204000	0.533560	0.7723620000
Co31	Co	0.866260	0.526090	0.049660	1.1564300000
Co32	Co	0.725340	0.031410	0.040050	1.0694600000
Co33	Co	0.814490	0.796000	0.033560	0.7723620000
Co34	Co	0.133740	0.026090	0.450340	1.1564300000
Co35	Co	0.274660	0.531410	0.459950	1.0694600000
Co36	Co	0.185510	0.296000	0.466440	0.7723620000
Co37	Co	0.049660	0.633740	0.026090	1.1564300000
Co38	Co	0.040050	0.774660	0.531410	1.0694600000
Co39	Co	0.033560	0.685510	0.296000	0.7723620000
Co40	Co	0.450340	0.366260	0.526090	1.1564300000
Co41	Co	0.459950	0.225340	0.031410	1.0694600000
Co42	Co	0.466440	0.314490	0.796000	0.7723620000
Co43	Co	0.950340	0.133740	0.473910	1.1564300000
Co44	Co	0.959950	0.274660	0.968590	1.0694600000
Co45	Co	0.966440	0.185510	0.204000	0.7723620000
Co46	Co	0.549660	0.866260	0.973910	1.1564300000
Co47	Co	0.540050	0.725340	0.468590	1.0694600000
Co48	Co	0.533560	0.814490	0.704000	0.7723620000
Co49	Co	0.026090	0.049660	0.633740	1.1564300000
Co50	Co	0.531410	0.040050	0.774660	1.0694600000
Co51	Co	0.296000	0.033560	0.685510	0.7723620000
Co52	Co	0.526090	0.450340	0.366260	1.1564300000
Co53	Co	0.031410	0.459950	0.225340	1.0694600000
Co54	Co	0.796000	0.466440	0.314490	0.7723620000
Co55	Co	0.473910	0.950340	0.133740	1.1564300000
Co56	Co	0.968590	0.959950	0.274660	1.0694600000
Co57	Co	0.204000	0.966440	0.185510	0.7723620000
Co58	Co	0.973910	0.549660	0.866260	1.1564300000
Co59	Co	0.468590	0.540050	0.725340	1.0694600000
Co60	Co	0.704000	0.533560	0.814490	0.7723620000
Co61	Co	0.633740	0.026090	0.049660	1.1564300000
Co62	Co	0.774660	0.531410	0.040050	1.0694600000
Co63	Co	0.685510	0.296000	0.033560	0.7723620000
Co64	Co	0.366260	0.526090	0.450340	1.1564300000
Co65	Co	0.225340	0.031410	0.459950	1.0694600000
Co66	Co	0.314490	0.796000	0.466440	0.7723620000
Co67	Co	0.133740	0.473910	0.950340	1.1564300000
Co68	Co	0.274660	0.968590	0.959950	1.0694600000
Co69	Co	0.185510	0.204000	0.966440	0.7723620000
Co70	Co	0.866260	0.973910	0.549660	1.1564300000
Co71	Co	0.725340	0.468590	0.540050	1.0694600000
Co72	Co	0.814490	0.704000	0.533560	0.7723620000
H1	H	0.984000	0.135600	0.575100	0.1041360000
H2	H	0.961800	0.233500	0.580800	0.1077310000
H3	H	0.996600	0.188400	0.664600	0.1077310000
H4	H	0.937200	0.350900	0.834000	0.1077310000
H5	H	0.948000	0.440600	0.884400	0.1041360000
H6	H	0.959800	0.436500	0.781800	0.1077310000
H7	H	0.893300	0.407000	0.764400	0.1220260000
H8	H	0.854900	0.381700	0.719900	0.1220260000
H9	H	0.867200	0.284900	0.629300	0.1220260000
H10	H	0.909500	0.243700	0.606100	0.1220260000
H11	H	0.807100	0.385000	0.613800	0.1155720000
H12	H	0.760000	0.360800	0.642600	0.1029880000
H13	H	0.769000	0.319900	0.686000	0.1155720000
H14	H	0.043700	0.230000	0.639400	0.1220260000
H15	H	0.086200	0.262200	0.675100	0.1220260000
H16	H	0.069400	0.348300	0.779900	0.1220260000
H17	H	0.018500	0.374900	0.807600	0.1220260000
H18	H	0.154600	0.277200	0.768000	0.1155720000
H19	H	0.186100	0.320400	0.739900	0.1029880000
H20	H	0.158100	0.359000	0.703100	0.1155720000
H21	H	0.516000	0.864400	0.075100	0.1041360000
H22	H	0.538200	0.766500	0.080800	0.1077310000
H23	H	0.503400	0.811600	0.164600	0.1077310000
H24	H	0.562800	0.649100	0.334000	0.1077310000
H25	H	0.552000	0.559400	0.384400	0.1041360000
H26	H	0.540200	0.563500	0.281800	0.1077310000
H27	H	0.606700	0.593000	0.264400	0.1220260000
H28	H	0.645100	0.618300	0.219900	0.1220260000
H29	H	0.632800	0.715100	0.129300	0.1220260000
H30	H	0.590500	0.756300	0.106100	0.1220260000
H31	H	0.692900	0.615000	0.113800	0.1155720000
H32	H	0.740000	0.639200	0.142600	0.1029880000
H33	H	0.731000	0.680100	0.186000	0.1155720000
H34	H	0.456300	0.770000	0.139400	0.1220260000
H35	H	0.413800	0.737800	0.175100	0.1220260000
H36	H	0.430600	0.651700	0.279900	0.1220260000
H37	H	0.481500	0.625100	0.307600	0.1220260000
H38	H	0.345400	0.722800	0.268000	0.1155720000
H39	H	0.313900	0.679600	0.239900	0.1029880000
H40	H	0.341900	0.641000	0.203100	0.1155720000
H41	H	0.016000	0.635600	0.924900	0.1041360000
H42	H	0.038200	0.733500	0.919200	0.1077310000
H43	H	0.003400	0.688400	0.835400	0.1077310000
H44	H	0.062800	0.850900	0.666000	0.1077310000
H45	H	0.052000	0.940600	0.615600	0.1041360000
H46	H	0.040200	0.936500	0.718200	0.1077310000
H47	H	0.106700	0.907000	0.735600	0.1220260000
H48	H	0.145100	0.881700	0.780100	0.1220260000
H49	H	0.132800	0.784900	0.870700	0.1220260000
H50	H	0.090500	0.743700	0.893900	0.1220260000
H51	H	0.192900	0.885000	0.886200	0.1155720000
H52	H	0.240000	0.860800	0.857400	0.1029880000
H53	H	0.231000	0.819900	0.814000	0.1155720000
H54	H	0.956300	0.730000	0.860600	0.1220260000
H55	H	0.913800	0.762200	0.824900	0.1220260000
H56	H	0.930600	0.848300	0.720100	0.1220260000
H57	H	0.981500	0.874900	0.692400	0.1220260000
H58	H	0.845400	0.777200	0.732000	0.1155720000
H59	H	0.813900	0.820400	0.760100	0.1029880000
H60	H	0.841900	0.859000	0.796900	0.1155720000
H61	H	0.484000	0.364400	0.424900	0.1041360000
H62	H	0.461800	0.266500	0.419200	0.1077310000
H63	H	0.496600	0.311600	0.335400	0.1077310000
H64	H	0.437200	0.149100	0.166000	0.1077310000
H65	H	0.448000	0.059400	0.115600	0.1041360000
H66	H	0.459800	0.063500	0.218200	0.1077310000
H67	H	0.393300	0.093000	0.235600	0.1220260000
H68	H	0.354900	0.118300	0.280100	0.1220260000
H69	H	0.367200	0.215100	0.370700	0.1220260000
H70	H	0.409500	0.256300	0.393900	0.1220260000
H71	H	0.307100	0.115000	0.386200	0.1155720000
H72	H	0.260000	0.139200	0.357400	0.1029880000
H73	H	0.269000	0.180100	0.314000	0.1155720000
H74	H	0.543700	0.270000	0.360600	0.1220260000
H75	H	0.586200	0.237800	0.324900	0.1220260000
H76	H	0.569400	0.151700	0.220100	0.1220260000
H77	H	0.518500	0.125100	0.192400	0.1220260000
H78	H	0.654600	0.222800	0.232000	0.1155720000
H79	H	0.686100	0.179600	0.260100	0.1029880000
H80	H	0.658100	0.141000	0.296900	0.1155720000
H81	H	0.575100	0.984000	0.135600	0.1041360000
H82	H	0.580800	0.961800	0.233500	0.1077310000
H83	H	0.664600	0.996600	0.188400	0.1077310000
H84	H	0.834000	0.937200	0.350900	0.1077310000
H85	H	0.884400	0.948000	0.440600	0.1041360000
H86	H	0.781800	0.959800	0.436500	0.1077310000
H87	H	0.764400	0.893300	0.407000	0.1220260000
H88	H	0.719900	0.854900	0.381700	0.1220260000
H89	H	0.629300	0.867200	0.284900	0.1220260000
H90	H	0.606100	0.909500	0.243700	0.1220260000
H91	H	0.613800	0.807100	0.385000	0.1155720000
H92	H	0.642600	0.760000	0.360800	0.1029880000
H93	H	0.686000	0.769000	0.319900	0.1155720000
H94	H	0.639400	0.043700	0.230000	0.1220260000
H95	H	0.675100	0.086200	0.262200	0.1220260000
H96	H	0.779900	0.069400	0.348300	0.1220260000
H97	H	0.807600	0.018500	0.374900	0.1220260000
H98	H	0.768000	0.154600	0.277200	0.1155720000
H99	H	0.739900	0.186100	0.320400	0.1029880000
H100	H	0.703100	0.158100	0.359000	0.1155720000
H101	H	0.075100	0.516000	0.864400	0.1041360000
H102	H	0.080800	0.538200	0.766500	0.1077310000
H103	H	0.164600	0.503400	0.811600	0.1077310000
H104	H	0.334000	0.562800	0.649100	0.1077310000
H105	H	0.384400	0.552000	0.559400	0.1041360000
H106	H	0.281800	0.540200	0.563500	0.1077310000
H107	H	0.264400	0.606700	0.593000	0.1220260000
H108	H	0.219900	0.645100	0.618300	0.1220260000
H109	H	0.129300	0.632800	0.715100	0.1220260000
H110	H	0.106100	0.590500	0.756300	0.1220260000
H111	H	0.113800	0.692900	0.615000	0.1155720000
H112	H	0.142600	0.740000	0.639200	0.1029880000
H113	H	0.186000	0.731000	0.680100	0.1155720000
H114	H	0.139400	0.456300	0.770000	0.1220260000
H115	H	0.175100	0.413800	0.737800	0.1220260000
H116	H	0.279900	0.430600	0.651700	0.1220260000
H117	H	0.307600	0.481500	0.625100	0.1220260000
H118	H	0.268000	0.345400	0.722800	0.1155720000
H119	H	0.239900	0.313900	0.679600	0.1029880000
H120	H	0.203100	0.341900	0.641000	0.1155720000
H121	H	0.924900	0.016000	0.635600	0.1041360000
H122	H	0.919200	0.038200	0.733500	0.1077310000
H123	H	0.835400	0.003400	0.688400	0.1077310000
H124	H	0.666000	0.062800	0.850900	0.1077310000
H125	H	0.615600	0.052000	0.940600	0.1041360000
H126	H	0.718200	0.040200	0.936500	0.1077310000
H127	H	0.735600	0.106700	0.907000	0.1220260000
H128	H	0.780100	0.145100	0.881700	0.1220260000
H129	H	0.870700	0.132800	0.784900	0.1220260000
H130	H	0.893900	0.090500	0.743700	0.1220260000
H131	H	0.886200	0.192900	0.885000	0.1155720000
H132	H	0.857400	0.240000	0.860800	0.1029880000
H133	H	0.814000	0.231000	0.819900	0.1155720000
H134	H	0.860600	0.956300	0.730000	0.1220260000
H135	H	0.824900	0.913800	0.762200	0.1220260000
H136	H	0.720100	0.930600	0.848300	0.1220260000
H137	H	0.692400	0.981500	0.874900	0.1220260000
H138	H	0.732000	0.845400	0.777200	0.1155720000
H139	H	0.760100	0.813900	0.820400	0.1029880000
H140	H	0.796900	0.841900	0.859000	0.1155720000
H141	H	0.424900	0.484000	0.364400	0.1041360000
H142	H	0.419200	0.461800	0.266500	0.1077310000
H143	H	0.335400	0.496600	0.311600	0.1077310000
H144	H	0.166000	0.437200	0.149100	0.1077310000
H145	H	0.115600	0.448000	0.059400	0.1041360000
H146	H	0.218200	0.459800	0.063500	0.1077310000
H147	H	0.235600	0.393300	0.093000	0.1220260000
H148	H	0.280100	0.354900	0.118300	0.1220260000
H149	H	0.370700	0.367200	0.215100	0.1220260000
H150	H	0.393900	0.409500	0.256300	0.1220260000
H151	H	0.386200	0.307100	0.115000	0.1155720000
H152	H	0.357400	0.260000	0.139200	0.1029880000
H153	H	0.314000	0.269000	0.180100	0.1155720000
H154	H	0.360600	0.543700	0.270000	0.1220260000
H155	H	0.324900	0.586200	0.237800	0.1220260000
H156	H	0.220100	0.569400	0.151700	0.1220260000
H157	H	0.192400	0.518500	0.125100	0.1220260000
H158	H	0.232000	0.654600	0.222800	0.1155720000
H159	H	0.260100	0.686100	0.179600	0.1029880000
H160	H	0.296900	0.658100	0.141000	0.1155720000
H161	H	0.135600	0.575100	0.984000	0.1041360000
H162	H	0.233500	0.580800	0.961800	0.1077310000
H163	H	0.188400	0.664600	0.996600	0.1077310000
H164	H	0.350900	0.834000	0.937200	0.1077310000
H165	H	0.440600	0.884400	0.948000	0.1041360000
H166	H	0.436500	0.781800	0.959800	0.1077310000
H167	H	0.407000	0.764400	0.893300	0.1220260000
H168	H	0.381700	0.719900	0.854900	0.1220260000
H169	H	0.284900	0.629300	0.867200	0.1220260000
H170	H	0.243700	0.606100	0.909500	0.1220260000
H171	H	0.385000	0.613800	0.807100	0.1155720000
H172	H	0.360800	0.642600	0.760000	0.1029880000
H173	H	0.319900	0.686000	0.769000	0.1155720000
H174	H	0.230000	0.639400	0.043700	0.1220260000
H175	H	0.262200	0.675100	0.086200	0.1220260000
H176	H	0.348300	0.779900	0.069400	0.1220260000
H177	H	0.374900	0.807600	0.018500	0.1220260000
H178	H	0.277200	0.768000	0.154600	0.1155720000
H179	H	0.320400	0.739900	0.186100	0.1029880000
H180	H	0.359000	0.703100	0.158100	0.1155720000
H181	H	0.864400	0.075100	0.516000	0.1041360000
H182	H	0.766500	0.080800	0.538200	0.1077310000
H183	H	0.811600	0.164600	0.503400	0.1077310000
H184	H	0.649100	0.334000	0.562800	0.1077310000
H185	H	0.559400	0.384400	0.552000	0.1041360000
H186	H	0.563500	0.281800	0.540200	0.1077310000
H187	H	0.593000	0.264400	0.606700	0.1220260000
H188	H	0.618300	0.219900	0.645100	0.1220260000
H189	H	0.715100	0.129300	0.632800	0.1220260000
H190	H	0.756300	0.106100	0.590500	0.1220260000
H191	H	0.615000	0.113800	0.692900	0.1155720000
H192	H	0.639200	0.142600	0.740000	0.1029880000
H193	H	0.680100	0.186000	0.731000	0.1155720000
H194	H	0.770000	0.139400	0.456300	0.1220260000
H195	H	0.737800	0.175100	0.413800	0.1220260000
H196	H	0.651700	0.279900	0.430600	0.1220260000
H197	H	0.625100	0.307600	0.481500	0.1220260000
H198	H	0.722800	0.268000	0.345400	0.1155720000
H199	H	0.679600	0.239900	0.313900	0.1029880000
H200	H	0.641000	0.203100	0.341900	0.1155720000
H201	H	0.635600	0.924900	0.016000	0.1041360000
H202	H	0.733500	0.919200	0.038200	0.1077310000
H203	H	0.688400	0.835400	0.003400	0.1077310000
H204	H	0.850900	0.666000	0.062800	0.1077310000
H205	H	0.940600	0.615600	0.052000	0.1041360000
H206	H	0.936500	0.718200	0.040200	0.1077310000
H207	H	0.907000	0.735600	0.106700	0.1220260000
H208	H	0.881700	0.780100	0.145100	0.1220260000
H209	H	0.784900	0.870700	0.132800	0.1220260000
H210	H	0.743700	0.893900	0.090500	0.1220260000
H211	H	0.885000	0.886200	0.192900	0.1155720000
H212	H	0.860800	0.857400	0.240000	0.1029880000
H213	H	0.819900	0.814000	0.231000	0.1155720000
H214	H	0.730000	0.860600	0.956300	0.1220260000
H215	H	0.762200	0.824900	0.913800	0.1220260000
H216	H	0.848300	0.720100	0.930600	0.1220260000
H217	H	0.874900	0.692400	0.981500	0.1220260000
H218	H	0.777200	0.732000	0.845400	0.1155720000
H219	H	0.820400	0.760100	0.813900	0.1029880000
H220	H	0.859000	0.796900	0.841900	0.1155720000
H221	H	0.364400	0.424900	0.484000	0.1041360000
H222	H	0.266500	0.419200	0.461800	0.1077310000
H223	H	0.311600	0.335400	0.496600	0.1077310000
H224	H	0.149100	0.166000	0.437200	0.1077310000
H225	H	0.059400	0.115600	0.448000	0.1041360000
H226	H	0.063500	0.218200	0.459800	0.1077310000
H227	H	0.093000	0.235600	0.393300	0.1220260000
H228	H	0.118300	0.280100	0.354900	0.1220260000
H229	H	0.215100	0.370700	0.367200	0.1220260000
H230	H	0.256300	0.393900	0.409500	0.1220260000
H231	H	0.115000	0.386200	0.307100	0.1155720000
H232	H	0.139200	0.357400	0.260000	0.1029880000
H233	H	0.180100	0.314000	0.269000	0.1155720000
H234	H	0.270000	0.360600	0.543700	0.1220260000
H235	H	0.237800	0.324900	0.586200	0.1220260000
H236	H	0.151700	0.220100	0.569400	0.1220260000
H237	H	0.125100	0.192400	0.518500	0.1220260000
H238	H	0.222800	0.232000	0.654600	0.1155720000
H239	H	0.179600	0.260100	0.686100	0.1029880000
H240	H	0.141000	0.296900	0.658100	0.1155720000
H241	H	0.016000	0.864400	0.424900	0.1041360000
H242	H	0.038200	0.766500	0.419200	0.1077310000
H243	H	0.003400	0.811600	0.335400	0.1077310000
H244	H	0.062800	0.649100	0.166000	0.1077310000
H245	H	0.052000	0.559400	0.115600	0.1041360000
H246	H	0.040200	0.563500	0.218200	0.1077310000
H247	H	0.106700	0.593000	0.235600	0.1220260000
H248	H	0.145100	0.618300	0.280100	0.1220260000
H249	H	0.132800	0.715100	0.370700	0.1220260000
H250	H	0.090500	0.756300	0.393900	0.1220260000
H251	H	0.192900	0.615000	0.386200	0.1155720000
H252	H	0.240000	0.639200	0.357400	0.1029880000
H253	H	0.231000	0.680100	0.314000	0.1155720000
H254	H	0.956300	0.770000	0.360600	0.1220260000
H255	H	0.913800	0.737800	0.324900	0.1220260000
H256	H	0.930600	0.651700	0.220100	0.1220260000
H257	H	0.981500	0.625100	0.192400	0.1220260000
H258	H	0.845400	0.722800	0.232000	0.1155720000
H259	H	0.813900	0.679600	0.260100	0.1029880000
H260	H	0.841900	0.641000	0.296900	0.1155720000
H261	H	0.484000	0.135600	0.924900	0.1041360000
H262	H	0.461800	0.233500	0.919200	0.1077310000
H263	H	0.496600	0.188400	0.835400	0.1077310000
H264	H	0.437200	0.350900	0.666000	0.1077310000
H265	H	0.448000	0.440600	0.615600	0.1041360000
H266	H	0.459800	0.436500	0.718200	0.1077310000
H267	H	0.393300	0.407000	0.735600	0.1220260000
H268	H	0.354900	0.381700	0.780100	0.1220260000
H269	H	0.367200	0.284900	0.870700	0.1220260000
H270	H	0.409500	0.243700	0.893900	0.1220260000
H271	H	0.307100	0.385000	0.886200	0.1155720000
H272	H	0.260000	0.360800	0.857400	0.1029880000
H273	H	0.269000	0.319900	0.814000	0.1155720000
H274	H	0.543700	0.230000	0.860600	0.1220260000
H275	H	0.586200	0.262200	0.824900	0.1220260000
H276	H	0.569400	0.348300	0.720100	0.1220260000
H277	H	0.518500	0.374900	0.692400	0.1220260000
H278	H	0.654600	0.277200	0.732000	0.1155720000
H279	H	0.686100	0.320400	0.760100	0.1029880000
H280	H	0.658100	0.359000	0.796900	0.1155720000
H281	H	0.984000	0.364400	0.075100	0.1041360000
H282	H	0.961800	0.266500	0.080800	0.1077310000
H283	H	0.996600	0.311600	0.164600	0.1077310000
H284	H	0.937200	0.149100	0.334000	0.1077310000
H285	H	0.948000	0.059400	0.384400	0.1041360000
H286	H	0.959800	0.063500	0.281800	0.1077310000
H287	H	0.893300	0.093000	0.264400	0.1220260000
H288	H	0.854900	0.118300	0.219900	0.1220260000
H289	H	0.867200	0.215100	0.129300	0.1220260000
H290	H	0.909500	0.256300	0.106100	0.1220260000
H291	H	0.807100	0.115000	0.113800	0.1155720000
H292	H	0.760000	0.139200	0.142600	0.1029880000
H293	H	0.769000	0.180100	0.186000	0.1155720000
H294	H	0.043700	0.270000	0.139400	0.1220260000
H295	H	0.086200	0.237800	0.175100	0.1220260000
H296	H	0.069400	0.151700	0.279900	0.1220260000
H297	H	0.018500	0.125100	0.307600	0.1220260000
H298	H	0.154600	0.222800	0.268000	0.1155720000
H299	H	0.186100	0.179600	0.239900	0.1029880000
H300	H	0.158100	0.141000	0.203100	0.1155720000
H301	H	0.516000	0.635600	0.575100	0.1041360000
H302	H	0.538200	0.733500	0.580800	0.1077310000
H303	H	0.503400	0.688400	0.664600	0.1077310000
H304	H	0.562800	0.850900	0.834000	0.1077310000
H305	H	0.552000	0.940600	0.884400	0.1041360000
H306	H	0.540200	0.936500	0.781800	0.1077310000
H307	H	0.606700	0.907000	0.764400	0.1220260000
H308	H	0.645100	0.881700	0.719900	0.1220260000
H309	H	0.632800	0.784900	0.629300	0.1220260000
H310	H	0.590500	0.743700	0.606100	0.1220260000
H311	H	0.692900	0.885000	0.613800	0.1155720000
H312	H	0.740000	0.860800	0.642600	0.1029880000
H313	H	0.731000	0.819900	0.686000	0.1155720000
H314	H	0.456300	0.730000	0.639400	0.1220260000
H315	H	0.413800	0.762200	0.675100	0.1220260000
H316	H	0.430600	0.848300	0.779900	0.1220260000
H317	H	0.481500	0.874900	0.807600	0.1220260000
H318	H	0.345400	0.777200	0.768000	0.1155720000
H319	H	0.313900	0.820400	0.739900	0.1029880000
H320	H	0.341900	0.859000	0.703100	0.1155720000
H321	H	0.424900	0.016000	0.864400	0.1041360000
H322	H	0.419200	0.038200	0.766500	0.1077310000
H323	H	0.335400	0.003400	0.811600	0.1077310000
H324	H	0.166000	0.062800	0.649100	0.1077310000
H325	H	0.115600	0.052000	0.559400	0.1041360000
H326	H	0.218200	0.040200	0.563500	0.1077310000
H327	H	0.235600	0.106700	0.593000	0.1220260000
H328	H	0.280100	0.145100	0.618300	0.1220260000
H329	H	0.370700	0.132800	0.715100	0.1220260000
H330	H	0.393900	0.090500	0.756300	0.1220260000
H331	H	0.386200	0.192900	0.615000	0.1155720000
H332	H	0.357400	0.240000	0.639200	0.1029880000
H333	H	0.314000	0.231000	0.680100	0.1155720000
H334	H	0.360600	0.956300	0.770000	0.1220260000
H335	H	0.324900	0.913800	0.737800	0.1220260000
H336	H	0.220100	0.930600	0.651700	0.1220260000
H337	H	0.192400	0.981500	0.625100	0.1220260000
H338	H	0.232000	0.845400	0.722800	0.1155720000
H339	H	0.260100	0.813900	0.679600	0.1029880000
H340	H	0.296900	0.841900	0.641000	0.1155720000
H341	H	0.924900	0.484000	0.135600	0.1041360000
H342	H	0.919200	0.461800	0.233500	0.1077310000
H343	H	0.835400	0.496600	0.188400	0.1077310000
H344	H	0.666000	0.437200	0.350900	0.1077310000
H345	H	0.615600	0.448000	0.440600	0.1041360000
H346	H	0.718200	0.459800	0.436500	0.1077310000
H347	H	0.735600	0.393300	0.407000	0.1220260000
H348	H	0.780100	0.354900	0.381700	0.1220260000
H349	H	0.870700	0.367200	0.284900	0.1220260000
H350	H	0.893900	0.409500	0.243700	0.1220260000
H351	H	0.886200	0.307100	0.385000	0.1155720000
H352	H	0.857400	0.260000	0.360800	0.1029880000
H353	H	0.814000	0.269000	0.319900	0.1155720000
H354	H	0.860600	0.543700	0.230000	0.1220260000
H355	H	0.824900	0.586200	0.262200	0.1220260000
H356	H	0.720100	0.569400	0.348300	0.1220260000
H357	H	0.692400	0.518500	0.374900	0.1220260000
H358	H	0.732000	0.654600	0.277200	0.1155720000
H359	H	0.760100	0.686100	0.320400	0.1029880000
H360	H	0.796900	0.658100	0.359000	0.1155720000
H361	H	0.075100	0.984000	0.364400	0.1041360000
H362	H	0.080800	0.961800	0.266500	0.1077310000
H363	H	0.164600	0.996600	0.311600	0.1077310000
H364	H	0.334000	0.937200	0.149100	0.1077310000
H365	H	0.384400	0.948000	0.059400	0.1041360000
H366	H	0.281800	0.959800	0.063500	0.1077310000
H367	H	0.264400	0.893300	0.093000	0.1220260000
H368	H	0.219900	0.854900	0.118300	0.1220260000
H369	H	0.129300	0.867200	0.215100	0.1220260000
H370	H	0.106100	0.909500	0.256300	0.1220260000
H371	H	0.113800	0.807100	0.115000	0.1155720000
H372	H	0.142600	0.760000	0.139200	0.1029880000
H373	H	0.186000	0.769000	0.180100	0.1155720000
H374	H	0.139400	0.043700	0.270000	0.1220260000
H375	H	0.175100	0.086200	0.237800	0.1220260000
H376	H	0.279900	0.069400	0.151700	0.1220260000
H377	H	0.307600	0.018500	0.125100	0.1220260000
H378	H	0.268000	0.154600	0.222800	0.1155720000
H379	H	0.239900	0.186100	0.179600	0.1029880000
H380	H	0.203100	0.158100	0.141000	0.1155720000
H381	H	0.575100	0.516000	0.635600	0.1041360000
H382	H	0.580800	0.538200	0.733500	0.1077310000
H383	H	0.664600	0.503400	0.688400	0.1077310000
H384	H	0.834000	0.562800	0.850900	0.1077310000
H385	H	0.884400	0.552000	0.940600	0.1041360000
H386	H	0.781800	0.540200	0.936500	0.1077310000
H387	H	0.764400	0.606700	0.907000	0.1220260000
H388	H	0.719900	0.645100	0.881700	0.1220260000
H389	H	0.629300	0.632800	0.784900	0.1220260000
H390	H	0.606100	0.590500	0.743700	0.1220260000
H391	H	0.613800	0.692900	0.885000	0.1155720000
H392	H	0.642600	0.740000	0.860800	0.1029880000
H393	H	0.686000	0.731000	0.819900	0.1155720000
H394	H	0.639400	0.456300	0.730000	0.1220260000
H395	H	0.675100	0.413800	0.762200	0.1220260000
H396	H	0.779900	0.430600	0.848300	0.1220260000
H397	H	0.807600	0.481500	0.874900	0.1220260000
H398	H	0.768000	0.345400	0.777200	0.1155720000
H399	H	0.739900	0.313900	0.820400	0.1029880000
H400	H	0.703100	0.341900	0.859000	0.1155720000
H401	H	0.864400	0.424900	0.016000	0.1041360000
H402	H	0.766500	0.419200	0.038200	0.1077310000
H403	H	0.811600	0.335400	0.003400	0.1077310000
H404	H	0.649100	0.166000	0.062800	0.1077310000
H405	H	0.559400	0.115600	0.052000	0.1041360000
H406	H	0.563500	0.218200	0.040200	0.1077310000
H407	H	0.593000	0.235600	0.106700	0.1220260000
H408	H	0.618300	0.280100	0.145100	0.1220260000
H409	H	0.715100	0.370700	0.132800	0.1220260000
H410	H	0.756300	0.393900	0.090500	0.1220260000
H411	H	0.615000	0.386200	0.192900	0.1155720000
H412	H	0.639200	0.357400	0.240000	0.1029880000
H413	H	0.680100	0.314000	0.231000	0.1155720000
H414	H	0.770000	0.360600	0.956300	0.1220260000
H415	H	0.737800	0.324900	0.913800	0.1220260000
H416	H	0.651700	0.220100	0.930600	0.1220260000
H417	H	0.625100	0.192400	0.981500	0.1220260000
H418	H	0.722800	0.232000	0.845400	0.1155720000
H419	H	0.679600	0.260100	0.813900	0.1029880000
H420	H	0.641000	0.296900	0.841900	0.1155720000
H421	H	0.135600	0.924900	0.484000	0.1041360000
H422	H	0.233500	0.919200	0.461800	0.1077310000
H423	H	0.188400	0.835400	0.496600	0.1077310000
H424	H	0.350900	0.666000	0.437200	0.1077310000
H425	H	0.440600	0.615600	0.448000	0.1041360000
H426	H	0.436500	0.718200	0.459800	0.1077310000
H427	H	0.407000	0.735600	0.393300	0.1220260000
H428	H	0.381700	0.780100	0.354900	0.1220260000
H429	H	0.284900	0.870700	0.367200	0.1220260000
H430	H	0.243700	0.893900	0.409500	0.1220260000
H431	H	0.385000	0.886200	0.307100	0.1155720000
H432	H	0.360800	0.857400	0.260000	0.1029880000
H433	H	0.319900	0.814000	0.269000	0.1155720000
H434	H	0.230000	0.860600	0.543700	0.1220260000
H435	H	0.262200	0.824900	0.586200	0.1220260000
H436	H	0.348300	0.720100	0.569400	0.1220260000
H437	H	0.374900	0.692400	0.518500	0.1220260000
H438	H	0.277200	0.732000	0.654600	0.1155720000
H439	H	0.320400	0.760100	0.686100	0.1029880000
H440	H	0.359000	0.796900	0.658100	0.1155720000
H441	H	0.364400	0.075100	0.984000	0.1041360000
H442	H	0.266500	0.080800	0.961800	0.1077310000
H443	H	0.311600	0.164600	0.996600	0.1077310000
H444	H	0.149100	0.334000	0.937200	0.1077310000
H445	H	0.059400	0.384400	0.948000	0.1041360000
H446	H	0.063500	0.281800	0.959800	0.1077310000
H447	H	0.093000	0.264400	0.893300	0.1220260000
H448	H	0.118300	0.219900	0.854900	0.1220260000
H449	H	0.215100	0.129300	0.867200	0.1220260000
H450	H	0.256300	0.106100	0.909500	0.1220260000
H451	H	0.115000	0.113800	0.807100	0.1155720000
H452	H	0.139200	0.142600	0.760000	0.1029880000
H453	H	0.180100	0.186000	0.769000	0.1155720000
H454	H	0.270000	0.139400	0.043700	0.1220260000
H455	H	0.237800	0.175100	0.086200	0.1220260000
H456	H	0.151700	0.279900	0.069400	0.1220260000
H457	H	0.125100	0.307600	0.018500	0.1220260000
H458	H	0.222800	0.268000	0.154600	0.1155720000
H459	H	0.179600	0.239900	0.186100	0.1029880000
H460	H	0.141000	0.203100	0.158100	0.1155720000
H461	H	0.635600	0.575100	0.516000	0.1041360000
H462	H	0.733500	0.580800	0.538200	0.1077310000
H463	H	0.688400	0.664600	0.503400	0.1077310000
H464	H	0.850900	0.834000	0.562800	0.1077310000
H465	H	0.940600	0.884400	0.552000	0.1041360000
H466	H	0.936500	0.781800	0.540200	0.1077310000
H467	H	0.907000	0.764400	0.606700	0.1220260000
H468	H	0.881700	0.719900	0.645100	0.1220260000
H469	H	0.784900	0.629300	0.632800	0.1220260000
H470	H	0.743700	0.606100	0.590500	0.1220260000
H471	H	0.885000	0.613800	0.692900	0.1155720000
H472	H	0.860800	0.642600	0.740000	0.1029880000
H473	H	0.819900	0.686000	0.731000	0.1155720000
H474	H	0.730000	0.639400	0.456300	0.1220260000
H475	H	0.762200	0.675100	0.413800	0.1220260000
H476	H	0.848300	0.779900	0.430600	0.1220260000
H477	H	0.874900	0.807600	0.481500	0.1220260000
H478	H	0.777200	0.768000	0.345400	0.1155720000
H479	H	0.820400	0.739900	0.313900	0.1029880000
H480	H	0.859000	0.703100	0.341900	0.1155720000
C1	C	0.961500	0.182900	0.534800	0.7267530000
C2	C	0.006300	0.124800	0.640700	0.6644790000
C3	C	0.991000	0.154900	0.624800	-0.1188230000
C4	C	0.981400	0.155900	0.588400	0.0109770000
C5	C	0.969600	0.183400	0.573500	-0.1469490000
C6	C	0.968200	0.213000	0.592600	-0.0721990000
C7	C	0.975100	0.215900	0.626700	0.0586850000
C8	C	0.988500	0.186800	0.641600	-0.0751460000
C9	C	0.957200	0.481800	0.831300	0.7267530000
C10	C	0.937500	0.374100	0.898800	0.6644790000
C11	C	0.942200	0.374900	0.834000	-0.0751460000
C12	C	0.941500	0.393000	0.864900	-0.1188230000
C13	C	0.947200	0.427800	0.863600	0.0109770000
C14	C	0.951800	0.444500	0.832700	-0.1469490000
C15	C	0.954600	0.425200	0.802800	-0.0721990000
C16	C	0.950100	0.391400	0.802900	0.0586850000
C17	C	0.955800	0.369200	0.770200	-0.1233760000
C18	C	0.931700	0.373000	0.744600	0.2417780000
C19	C	0.899200	0.389600	0.748200	-0.1491390000
C20	C	0.878300	0.375700	0.724000	-0.1491390000
C21	C	0.897700	0.350100	0.705600	0.2371150000
C22	C	0.884600	0.329400	0.679800	-0.0925840000
C23	C	0.904900	0.306400	0.661900	0.2371150000
C24	C	0.890600	0.283800	0.636300	-0.1491390000
C25	C	0.913200	0.260900	0.623200	-0.1491390000
C26	C	0.944200	0.269000	0.641600	0.2417780000
C27	C	0.849400	0.334200	0.665700	0.0119820000
C28	C	0.844100	0.358500	0.640000	0.0370270000
C29	C	0.810700	0.368400	0.631400	-0.1358530000
C30	C	0.782800	0.354000	0.648500	0.0065800000
C31	C	0.788100	0.329700	0.674300	-0.1358530000
C32	C	0.821500	0.319800	0.682900	0.0370270000
C33	C	0.972800	0.248600	0.647700	-0.1233760000
C34	C	0.003700	0.260800	0.661800	0.2417780000
C35	C	0.038300	0.248000	0.655200	-0.1491390000
C36	C	0.061900	0.265100	0.674500	-0.1491390000
C37	C	0.040600	0.289000	0.694100	0.2371150000
C38	C	0.053900	0.310900	0.719900	-0.0925840000
C39	C	0.034000	0.332000	0.740500	0.2371150000
C40	C	0.046400	0.348000	0.771600	-0.1491390000
C41	C	0.018600	0.362500	0.786500	-0.1491390000
C42	C	0.989100	0.356000	0.765000	0.2417780000
C43	C	0.143300	0.292900	0.753000	-0.1358530000
C44	C	0.161900	0.318500	0.736400	0.0065800000
C45	C	0.145300	0.341500	0.714500	-0.1358530000
C46	C	0.110000	0.338800	0.709200	0.0370270000
C47	C	0.091300	0.313200	0.725900	0.0119820000
C48	C	0.107900	0.290200	0.747800	0.0370270000
C49	C	0.538500	0.817100	0.034800	0.7267530000
C50	C	0.493700	0.875200	0.140700	0.6644790000
C51	C	0.509000	0.845100	0.124800	-0.1188230000
C52	C	0.518600	0.844100	0.088400	0.0109770000
C53	C	0.530400	0.816600	0.073500	-0.1469490000
C54	C	0.531800	0.787000	0.092600	-0.0721990000
C55	C	0.524900	0.784100	0.126700	0.0586850000
C56	C	0.511500	0.813200	0.141600	-0.0751460000
C57	C	0.542800	0.518200	0.331300	0.7267530000
C58	C	0.562500	0.625900	0.398800	0.6644790000
C59	C	0.557800	0.625100	0.334000	-0.0751460000
C60	C	0.558500	0.607000	0.364900	-0.1188230000
C61	C	0.552800	0.572200	0.363600	0.0109770000
C62	C	0.548200	0.555500	0.332700	-0.1469490000
C63	C	0.545400	0.574800	0.302800	-0.0721990000
C64	C	0.549900	0.608600	0.302900	0.0586850000
C65	C	0.544200	0.630800	0.270200	-0.1233760000
C66	C	0.568300	0.627000	0.244600	0.2417780000
C67	C	0.600800	0.610400	0.248200	-0.1491390000
C68	C	0.621700	0.624300	0.224000	-0.1491390000
C69	C	0.602300	0.649900	0.205600	0.2371150000
C70	C	0.615400	0.670600	0.179800	-0.0925840000
C71	C	0.595100	0.693600	0.161900	0.2371150000
C72	C	0.609400	0.716200	0.136300	-0.1491390000
C73	C	0.586800	0.739100	0.123200	-0.1491390000
C74	C	0.555800	0.731000	0.141600	0.2417780000
C75	C	0.650600	0.665800	0.165700	0.0119820000
C76	C	0.655900	0.641500	0.140000	0.0370270000
C77	C	0.689300	0.631600	0.131400	-0.1358530000
C78	C	0.717200	0.646000	0.148500	0.0065800000
C79	C	0.711900	0.670300	0.174300	-0.1358530000
C80	C	0.678500	0.680200	0.182900	0.0370270000
C81	C	0.527200	0.751400	0.147700	-0.1233760000
C82	C	0.496300	0.739200	0.161800	0.2417780000
C83	C	0.461700	0.752000	0.155200	-0.1491390000
C84	C	0.438100	0.734900	0.174500	-0.1491390000
C85	C	0.459400	0.711000	0.194100	0.2371150000
C86	C	0.446100	0.689100	0.219900	-0.0925840000
C87	C	0.466000	0.668000	0.240500	0.2371150000
C88	C	0.453600	0.652000	0.271600	-0.1491390000
C89	C	0.481400	0.637500	0.286500	-0.1491390000
C90	C	0.510900	0.644000	0.265000	0.2417780000
C91	C	0.356700	0.707100	0.253000	-0.1358530000
C92	C	0.338100	0.681500	0.236400	0.0065800000
C93	C	0.354700	0.658500	0.214500	-0.1358530000
C94	C	0.390000	0.661200	0.209200	0.0370270000
C95	C	0.408700	0.686800	0.225900	0.0119820000
C96	C	0.392100	0.709800	0.247800	0.0370270000
C97	C	0.038500	0.682900	0.965200	0.7267530000
C98	C	0.993700	0.624800	0.859300	0.6644790000
C99	C	0.009000	0.654900	0.875200	-0.1188230000
C100	C	0.018600	0.655900	0.911600	0.0109770000
C101	C	0.030400	0.683400	0.926500	-0.1469490000
C102	C	0.031800	0.713000	0.907400	-0.0721990000
C103	C	0.024900	0.715900	0.873300	0.0586850000
C104	C	0.011500	0.686800	0.858400	-0.0751460000
C105	C	0.042800	0.981800	0.668700	0.7267530000
C106	C	0.062500	0.874100	0.601200	0.6644790000
C107	C	0.057800	0.874900	0.666000	-0.0751460000
C108	C	0.058500	0.893000	0.635100	-0.1188230000
C109	C	0.052800	0.927800	0.636400	0.0109770000
C110	C	0.048200	0.944500	0.667300	-0.1469490000
C111	C	0.045400	0.925200	0.697200	-0.0721990000
C112	C	0.049900	0.891400	0.697100	0.0586850000
C113	C	0.044200	0.869200	0.729800	-0.1233760000
C114	C	0.068300	0.873000	0.755400	0.2417780000
C115	C	0.100800	0.889600	0.751800	-0.1491390000
C116	C	0.121700	0.875700	0.776000	-0.1491390000
C117	C	0.102300	0.850100	0.794400	0.2371150000
C118	C	0.115400	0.829400	0.820200	-0.0925840000
C119	C	0.095100	0.806400	0.838100	0.2371150000
C120	C	0.109400	0.783800	0.863700	-0.1491390000
C121	C	0.086800	0.760900	0.876800	-0.1491390000
C122	C	0.055800	0.769000	0.858400	0.2417780000
C123	C	0.150600	0.834200	0.834300	0.0119820000
C124	C	0.155900	0.858500	0.860000	0.0370270000
C125	C	0.189300	0.868400	0.868600	-0.1358530000
C126	C	0.217200	0.854000	0.851500	0.0065800000
C127	C	0.211900	0.829700	0.825700	-0.1358530000
C128	C	0.178500	0.819800	0.817100	0.0370270000
C129	C	0.027200	0.748600	0.852300	-0.1233760000
C130	C	0.996300	0.760800	0.838200	0.2417780000
C131	C	0.961700	0.748000	0.844800	-0.1491390000
C132	C	0.938100	0.765100	0.825500	-0.1491390000
C133	C	0.959400	0.789000	0.805900	0.2371150000
C134	C	0.946100	0.810900	0.780100	-0.0925840000
C135	C	0.966000	0.832000	0.759500	0.2371150000
C136	C	0.953600	0.848000	0.728400	-0.1491390000
C137	C	0.981400	0.862500	0.713500	-0.1491390000
C138	C	0.010900	0.856000	0.735000	0.2417780000
C139	C	0.856700	0.792900	0.747000	-0.1358530000
C140	C	0.838100	0.818500	0.763600	0.0065800000
C141	C	0.854700	0.841500	0.785500	-0.1358530000
C142	C	0.890000	0.838800	0.790800	0.0370270000
C143	C	0.908700	0.813200	0.774100	0.0119820000
C144	C	0.892100	0.790200	0.752200	0.0370270000
C145	C	0.461500	0.317100	0.465200	0.7267530000
C146	C	0.506300	0.375200	0.359300	0.6644790000
C147	C	0.491000	0.345100	0.375200	-0.1188230000
C148	C	0.481400	0.344100	0.411600	0.0109770000
C149	C	0.469600	0.316600	0.426500	-0.1469490000
C150	C	0.468200	0.287000	0.407400	-0.0721990000
C151	C	0.475100	0.284100	0.373300	0.0586850000
C152	C	0.488500	0.313200	0.358400	-0.0751460000
C153	C	0.457200	0.018200	0.168700	0.7267530000
C154	C	0.437500	0.125900	0.101200	0.6644790000
C155	C	0.442200	0.125100	0.166000	-0.0751460000
C156	C	0.441500	0.107000	0.135100	-0.1188230000
C157	C	0.447200	0.072200	0.136400	0.0109770000
C158	C	0.451800	0.055500	0.167300	-0.1469490000
C159	C	0.454600	0.074800	0.197200	-0.0721990000
C160	C	0.450100	0.108600	0.197100	0.0586850000
C161	C	0.455800	0.130800	0.229800	-0.1233760000
C162	C	0.431700	0.127000	0.255400	0.2417780000
C163	C	0.399200	0.110400	0.251800	-0.1491390000
C164	C	0.378300	0.124300	0.276000	-0.1491390000
C165	C	0.397700	0.149900	0.294400	0.2371150000
C166	C	0.384600	0.170600	0.320200	-0.0925840000
C167	C	0.404900	0.193600	0.338100	0.2371150000
C168	C	0.390600	0.216200	0.363700	-0.1491390000
C169	C	0.413200	0.239100	0.376800	-0.1491390000
C170	C	0.444200	0.231000	0.358400	0.2417780000
C171	C	0.349400	0.165800	0.334300	0.0119820000
C172	C	0.344100	0.141500	0.360000	0.0370270000
C173	C	0.310700	0.131600	0.368600	-0.1358530000
C174	C	0.282800	0.146000	0.351500	0.0065800000
C175	C	0.288100	0.170300	0.325700	-0.1358530000
C176	C	0.321500	0.180200	0.317100	0.0370270000
C177	C	0.472800	0.251400	0.352300	-0.1233760000
C178	C	0.503700	0.239200	0.338200	0.2417780000
C179	C	0.538300	0.252000	0.344800	-0.1491390000
C180	C	0.561900	0.234900	0.325500	-0.1491390000
C181	C	0.540600	0.211000	0.305900	0.2371150000
C182	C	0.553900	0.189100	0.280100	-0.0925840000
C183	C	0.534000	0.168000	0.259500	0.2371150000
C184	C	0.546400	0.152000	0.228400	-0.1491390000
C185	C	0.518600	0.137500	0.213500	-0.1491390000
C186	C	0.489100	0.144000	0.235000	0.2417780000
C187	C	0.643300	0.207100	0.247000	-0.1358530000
C188	C	0.661900	0.181500	0.263600	0.0065800000
C189	C	0.645300	0.158500	0.285500	-0.1358530000
C190	C	0.610000	0.161200	0.290800	0.0370270000
C191	C	0.591300	0.186800	0.274100	0.0119820000
C192	C	0.607900	0.209800	0.252200	0.0370270000
C193	C	0.534800	0.961500	0.182900	0.7267530000
C194	C	0.640700	0.006300	0.124800	0.6644790000
C195	C	0.624800	0.991000	0.154900	-0.1188230000
C196	C	0.588400	0.981400	0.155900	0.0109770000
C197	C	0.573500	0.969600	0.183400	-0.1469490000
C198	C	0.592600	0.968200	0.213000	-0.0721990000
C199	C	0.626700	0.975100	0.215900	0.0586850000
C200	C	0.641600	0.988500	0.186800	-0.0751460000
C201	C	0.831300	0.957200	0.481800	0.7267530000
C202	C	0.898800	0.937500	0.374100	0.6644790000
C203	C	0.834000	0.942200	0.374900	-0.0751460000
C204	C	0.864900	0.941500	0.393000	-0.1188230000
C205	C	0.863600	0.947200	0.427800	0.0109770000
C206	C	0.832700	0.951800	0.444500	-0.1469490000
C207	C	0.802800	0.954600	0.425200	-0.0721990000
C208	C	0.802900	0.950100	0.391400	0.0586850000
C209	C	0.770200	0.955800	0.369200	-0.1233760000
C210	C	0.744600	0.931700	0.373000	0.2417780000
C211	C	0.748200	0.899200	0.389600	-0.1491390000
C212	C	0.724000	0.878300	0.375700	-0.1491390000
C213	C	0.705600	0.897700	0.350100	0.2371150000
C214	C	0.679800	0.884600	0.329400	-0.0925840000
C215	C	0.661900	0.904900	0.306400	0.2371150000
C216	C	0.636300	0.890600	0.283800	-0.1491390000
C217	C	0.623200	0.913200	0.260900	-0.1491390000
C218	C	0.641600	0.944200	0.269000	0.2417780000
C219	C	0.665700	0.849400	0.334200	0.0119820000
C220	C	0.640000	0.844100	0.358500	0.0370270000
C221	C	0.631400	0.810700	0.368400	-0.1358530000
C222	C	0.648500	0.782800	0.354000	0.0065800000
C223	C	0.674300	0.788100	0.329700	-0.1358530000
C224	C	0.682900	0.821500	0.319800	0.0370270000
C225	C	0.647700	0.972800	0.248600	-0.1233760000
C226	C	0.661800	0.003700	0.260800	0.2417780000
C227	C	0.655200	0.038300	0.248000	-0.1491390000
C228	C	0.674500	0.061900	0.265100	-0.1491390000
C229	C	0.694100	0.040600	0.289000	0.2371150000
C230	C	0.719900	0.053900	0.310900	-0.0925840000
C231	C	0.740500	0.034000	0.332000	0.2371150000
C232	C	0.771600	0.046400	0.348000	-0.1491390000
C233	C	0.786500	0.018600	0.362500	-0.1491390000
C234	C	0.765000	0.989100	0.356000	0.2417780000
C235	C	0.753000	0.143300	0.292900	-0.1358530000
C236	C	0.736400	0.161900	0.318500	0.0065800000
C237	C	0.714500	0.145300	0.341500	-0.1358530000
C238	C	0.709200	0.110000	0.338800	0.0370270000
C239	C	0.725900	0.091300	0.313200	0.0119820000
C240	C	0.747800	0.107900	0.290200	0.0370270000
C241	C	0.034800	0.538500	0.817100	0.7267530000
C242	C	0.140700	0.493700	0.875200	0.6644790000
C243	C	0.124800	0.509000	0.845100	-0.1188230000
C244	C	0.088400	0.518600	0.844100	0.0109770000
C245	C	0.073500	0.530400	0.816600	-0.1469490000
C246	C	0.092600	0.531800	0.787000	-0.0721990000
C247	C	0.126700	0.524900	0.784100	0.0586850000
C248	C	0.141600	0.511500	0.813200	-0.0751460000
C249	C	0.331300	0.542800	0.518200	0.7267530000
C250	C	0.398800	0.562500	0.625900	0.6644790000
C251	C	0.334000	0.557800	0.625100	-0.0751460000
C252	C	0.364900	0.558500	0.607000	-0.1188230000
C253	C	0.363600	0.552800	0.572200	0.0109770000
C254	C	0.332700	0.548200	0.555500	-0.1469490000
C255	C	0.302800	0.545400	0.574800	-0.0721990000
C256	C	0.302900	0.549900	0.608600	0.0586850000
C257	C	0.270200	0.544200	0.630800	-0.1233760000
C258	C	0.244600	0.568300	0.627000	0.2417780000
C259	C	0.248200	0.600800	0.610400	-0.1491390000
C260	C	0.224000	0.621700	0.624300	-0.1491390000
C261	C	0.205600	0.602300	0.649900	0.2371150000
C262	C	0.179800	0.615400	0.670600	-0.0925840000
C263	C	0.161900	0.595100	0.693600	0.2371150000
C264	C	0.136300	0.609400	0.716200	-0.1491390000
C265	C	0.123200	0.586800	0.739100	-0.1491390000
C266	C	0.141600	0.555800	0.731000	0.2417780000
C267	C	0.165700	0.650600	0.665800	0.0119820000
C268	C	0.140000	0.655900	0.641500	0.0370270000
C269	C	0.131400	0.689300	0.631600	-0.1358530000
C270	C	0.148500	0.717200	0.646000	0.0065800000
C271	C	0.174300	0.711900	0.670300	-0.1358530000
C272	C	0.182900	0.678500	0.680200	0.0370270000
C273	C	0.147700	0.527200	0.751400	-0.1233760000
C274	C	0.161800	0.496300	0.739200	0.2417780000
C275	C	0.155200	0.461700	0.752000	-0.1491390000
C276	C	0.174500	0.438100	0.734900	-0.1491390000
C277	C	0.194100	0.459400	0.711000	0.2371150000
C278	C	0.219900	0.446100	0.689100	-0.0925840000
C279	C	0.240500	0.466000	0.668000	0.2371150000
C280	C	0.271600	0.453600	0.652000	-0.1491390000
C281	C	0.286500	0.481400	0.637500	-0.1491390000
C282	C	0.265000	0.510900	0.644000	0.2417780000
C283	C	0.253000	0.356700	0.707100	-0.1358530000
C284	C	0.236400	0.338100	0.681500	0.0065800000
C285	C	0.214500	0.354700	0.658500	-0.1358530000
C286	C	0.209200	0.390000	0.661200	0.0370270000
C287	C	0.225900	0.408700	0.686800	0.0119820000
C288	C	0.247800	0.392100	0.709800	0.0370270000
C289	C	0.965200	0.038500	0.682900	0.7267530000
C290	C	0.859300	0.993700	0.624800	0.6644790000
C291	C	0.875200	0.009000	0.654900	-0.1188230000
C292	C	0.911600	0.018600	0.655900	0.0109770000
C293	C	0.926500	0.030400	0.683400	-0.1469490000
C294	C	0.907400	0.031800	0.713000	-0.0721990000
C295	C	0.873300	0.024900	0.715900	0.0586850000
C296	C	0.858400	0.011500	0.686800	-0.0751460000
C297	C	0.668700	0.042800	0.981800	0.7267530000
C298	C	0.601200	0.062500	0.874100	0.6644790000
C299	C	0.666000	0.057800	0.874900	-0.0751460000
C300	C	0.635100	0.058500	0.893000	-0.1188230000
C301	C	0.636400	0.052800	0.927800	0.0109770000
C302	C	0.667300	0.048200	0.944500	-0.1469490000
C303	C	0.697200	0.045400	0.925200	-0.0721990000
C304	C	0.697100	0.049900	0.891400	0.0586850000
C305	C	0.729800	0.044200	0.869200	-0.1233760000
C306	C	0.755400	0.068300	0.873000	0.2417780000
C307	C	0.751800	0.100800	0.889600	-0.1491390000
C308	C	0.776000	0.121700	0.875700	-0.1491390000
C309	C	0.794400	0.102300	0.850100	0.2371150000
C310	C	0.820200	0.115400	0.829400	-0.0925840000
C311	C	0.838100	0.095100	0.806400	0.2371150000
C312	C	0.863700	0.109400	0.783800	-0.1491390000
C313	C	0.876800	0.086800	0.760900	-0.1491390000
C314	C	0.858400	0.055800	0.769000	0.2417780000
C315	C	0.834300	0.150600	0.834200	0.0119820000
C316	C	0.860000	0.155900	0.858500	0.0370270000
C317	C	0.868600	0.189300	0.868400	-0.1358530000
C318	C	0.851500	0.217200	0.854000	0.0065800000
C319	C	0.825700	0.211900	0.829700	-0.1358530000
C320	C	0.817100	0.178500	0.819800	0.0370270000
C321	C	0.852300	0.027200	0.748600	-0.1233760000
C322	C	0.838200	0.996300	0.760800	0.2417780000
C323	C	0.844800	0.961700	0.748000	-0.1491390000
C324	C	0.825500	0.938100	0.765100	-0.1491390000
C325	C	0.805900	0.959400	0.789000	0.2371150000
C326	C	0.780100	0.946100	0.810900	-0.0925840000
C327	C	0.759500	0.966000	0.832000	0.2371150000
C328	C	0.728400	0.953600	0.848000	-0.1491390000
C329	C	0.713500	0.981400	0.862500	-0.1491390000
C330	C	0.735000	0.010900	0.856000	0.2417780000
C331	C	0.747000	0.856700	0.792900	-0.1358530000
C332	C	0.763600	0.838100	0.818500	0.0065800000
C333	C	0.785500	0.854700	0.841500	-0.1358530000
C334	C	0.790800	0.890000	0.838800	0.0370270000
C335	C	0.774100	0.908700	0.813200	0.0119820000
C336	C	0.752200	0.892100	0.790200	0.0370270000
C337	C	0.465200	0.461500	0.317100	0.7267530000
C338	C	0.359300	0.506300	0.375200	0.6644790000
C339	C	0.375200	0.491000	0.345100	-0.1188230000
C340	C	0.411600	0.481400	0.344100	0.0109770000
C341	C	0.426500	0.469600	0.316600	-0.1469490000
C342	C	0.407400	0.468200	0.287000	-0.0721990000
C343	C	0.373300	0.475100	0.284100	0.0586850000
C344	C	0.358400	0.488500	0.313200	-0.0751460000
C345	C	0.168700	0.457200	0.018200	0.7267530000
C346	C	0.101200	0.437500	0.125900	0.6644790000
C347	C	0.166000	0.442200	0.125100	-0.0751460000
C348	C	0.135100	0.441500	0.107000	-0.1188230000
C349	C	0.136400	0.447200	0.072200	0.0109770000
C350	C	0.167300	0.451800	0.055500	-0.1469490000
C351	C	0.197200	0.454600	0.074800	-0.0721990000
C352	C	0.197100	0.450100	0.108600	0.0586850000
C353	C	0.229800	0.455800	0.130800	-0.1233760000
C354	C	0.255400	0.431700	0.127000	0.2417780000
C355	C	0.251800	0.399200	0.110400	-0.1491390000
C356	C	0.276000	0.378300	0.124300	-0.1491390000
C357	C	0.294400	0.397700	0.149900	0.2371150000
C358	C	0.320200	0.384600	0.170600	-0.0925840000
C359	C	0.338100	0.404900	0.193600	0.2371150000
C360	C	0.363700	0.390600	0.216200	-0.1491390000
C361	C	0.376800	0.413200	0.239100	-0.1491390000
C362	C	0.358400	0.444200	0.231000	0.2417780000
C363	C	0.334300	0.349400	0.165800	0.0119820000
C364	C	0.360000	0.344100	0.141500	0.0370270000
C365	C	0.368600	0.310700	0.131600	-0.1358530000
C366	C	0.351500	0.282800	0.146000	0.0065800000
C367	C	0.325700	0.288100	0.170300	-0.1358530000
C368	C	0.317100	0.321500	0.180200	0.0370270000
C369	C	0.352300	0.472800	0.251400	-0.1233760000
C370	C	0.338200	0.503700	0.239200	0.2417780000
C371	C	0.344800	0.538300	0.252000	-0.1491390000
C372	C	0.325500	0.561900	0.234900	-0.1491390000
C373	C	0.305900	0.540600	0.211000	0.2371150000
C374	C	0.280100	0.553900	0.189100	-0.0925840000
C375	C	0.259500	0.534000	0.168000	0.2371150000
C376	C	0.228400	0.546400	0.152000	-0.1491390000
C377	C	0.213500	0.518600	0.137500	-0.1491390000
C378	C	0.235000	0.489100	0.144000	0.2417780000
C379	C	0.247000	0.643300	0.207100	-0.1358530000
C380	C	0.263600	0.661900	0.181500	0.0065800000
C381	C	0.285500	0.645300	0.158500	-0.1358530000
C382	C	0.290800	0.610000	0.161200	0.0370270000
C383	C	0.274100	0.591300	0.186800	0.0119820000
C384	C	0.252200	0.607900	0.209800	0.0370270000
C385	C	0.182900	0.534800	0.961500	0.7267530000
C386	C	0.124800	0.640700	0.006300	0.6644790000
C387	C	0.154900	0.624800	0.991000	-0.1188230000
C388	C	0.155900	0.588400	0.981400	0.0109770000
C389	C	0.183400	0.573500	0.969600	-0.1469490000
C390	C	0.213000	0.592600	0.968200	-0.0721990000
C391	C	0.215900	0.626700	0.975100	0.0586850000
C392	C	0.186800	0.641600	0.988500	-0.0751460000
C393	C	0.481800	0.831300	0.957200	0.7267530000
C394	C	0.374100	0.898800	0.937500	0.6644790000
C395	C	0.374900	0.834000	0.942200	-0.0751460000
C396	C	0.393000	0.864900	0.941500	-0.1188230000
C397	C	0.427800	0.863600	0.947200	0.0109770000
C398	C	0.444500	0.832700	0.951800	-0.1469490000
C399	C	0.425200	0.802800	0.954600	-0.0721990000
C400	C	0.391400	0.802900	0.950100	0.0586850000
C401	C	0.369200	0.770200	0.955800	-0.1233760000
C402	C	0.373000	0.744600	0.931700	0.2417780000
C403	C	0.389600	0.748200	0.899200	-0.1491390000
C404	C	0.375700	0.724000	0.878300	-0.1491390000
C405	C	0.350100	0.705600	0.897700	0.2371150000
C406	C	0.329400	0.679800	0.884600	-0.0925840000
C407	C	0.306400	0.661900	0.904900	0.2371150000
C408	C	0.283800	0.636300	0.890600	-0.1491390000
C409	C	0.260900	0.623200	0.913200	-0.1491390000
C410	C	0.269000	0.641600	0.944200	0.2417780000
C411	C	0.334200	0.665700	0.849400	0.0119820000
C412	C	0.358500	0.640000	0.844100	0.0370270000
C413	C	0.368400	0.631400	0.810700	-0.1358530000
C414	C	0.354000	0.648500	0.782800	0.0065800000
C415	C	0.329700	0.674300	0.788100	-0.1358530000
C416	C	0.319800	0.682900	0.821500	0.0370270000
C417	C	0.248600	0.647700	0.972800	-0.1233760000
C418	C	0.260800	0.661800	0.003700	0.2417780000
C419	C	0.248000	0.655200	0.038300	-0.1491390000
C420	C	0.265100	0.674500	0.061900	-0.1491390000
C421	C	0.289000	0.694100	0.040600	0.2371150000
C422	C	0.310900	0.719900	0.053900	-0.0925840000
C423	C	0.332000	0.740500	0.034000	0.2371150000
C424	C	0.348000	0.771600	0.046400	-0.1491390000
C425	C	0.362500	0.786500	0.018600	-0.1491390000
C426	C	0.356000	0.765000	0.989100	0.2417780000
C427	C	0.292900	0.753000	0.143300	-0.1358530000
C428	C	0.318500	0.736400	0.161900	0.0065800000
C429	C	0.341500	0.714500	0.145300	-0.1358530000
C430	C	0.338800	0.709200	0.110000	0.0370270000
C431	C	0.313200	0.725900	0.091300	0.0119820000
C432	C	0.290200	0.747800	0.107900	0.0370270000
C433	C	0.817100	0.034800	0.538500	0.7267530000
C434	C	0.875200	0.140700	0.493700	0.6644790000
C435	C	0.845100	0.124800	0.509000	-0.1188230000
C436	C	0.844100	0.088400	0.518600	0.0109770000
C437	C	0.816600	0.073500	0.530400	-0.1469490000
C438	C	0.787000	0.092600	0.531800	-0.0721990000
C439	C	0.784100	0.126700	0.524900	0.0586850000
C440	C	0.813200	0.141600	0.511500	-0.0751460000
C441	C	0.518200	0.331300	0.542800	0.7267530000
C442	C	0.625900	0.398800	0.562500	0.6644790000
C443	C	0.625100	0.334000	0.557800	-0.0751460000
C444	C	0.607000	0.364900	0.558500	-0.1188230000
C445	C	0.572200	0.363600	0.552800	0.0109770000
C446	C	0.555500	0.332700	0.548200	-0.1469490000
C447	C	0.574800	0.302800	0.545400	-0.0721990000
C448	C	0.608600	0.302900	0.549900	0.0586850000
C449	C	0.630800	0.270200	0.544200	-0.1233760000
C450	C	0.627000	0.244600	0.568300	0.2417780000
C451	C	0.610400	0.248200	0.600800	-0.1491390000
C452	C	0.624300	0.224000	0.621700	-0.1491390000
C453	C	0.649900	0.205600	0.602300	0.2371150000
C454	C	0.670600	0.179800	0.615400	-0.0925840000
C455	C	0.693600	0.161900	0.595100	0.2371150000
C456	C	0.716200	0.136300	0.609400	-0.1491390000
C457	C	0.739100	0.123200	0.586800	-0.1491390000
C458	C	0.731000	0.141600	0.555800	0.2417780000
C459	C	0.665800	0.165700	0.650600	0.0119820000
C460	C	0.641500	0.140000	0.655900	0.0370270000
C461	C	0.631600	0.131400	0.689300	-0.1358530000
C462	C	0.646000	0.148500	0.717200	0.0065800000
C463	C	0.670300	0.174300	0.711900	-0.1358530000
C464	C	0.680200	0.182900	0.678500	0.0370270000
C465	C	0.751400	0.147700	0.527200	-0.1233760000
C466	C	0.739200	0.161800	0.496300	0.2417780000
C467	C	0.752000	0.155200	0.461700	-0.1491390000
C468	C	0.734900	0.174500	0.438100	-0.1491390000
C469	C	0.711000	0.194100	0.459400	0.2371150000
C470	C	0.689100	0.219900	0.446100	-0.0925840000
C471	C	0.668000	0.240500	0.466000	0.2371150000
C472	C	0.652000	0.271600	0.453600	-0.1491390000
C473	C	0.637500	0.286500	0.481400	-0.1491390000
C474	C	0.644000	0.265000	0.510900	0.2417780000
C475	C	0.707100	0.253000	0.356700	-0.1358530000
C476	C	0.681500	0.236400	0.338100	0.0065800000
C477	C	0.658500	0.214500	0.354700	-0.1358530000
C478	C	0.661200	0.209200	0.390000	0.0370270000
C479	C	0.686800	0.225900	0.408700	0.0119820000
C480	C	0.709800	0.247800	0.392100	0.0370270000
C481	C	0.682900	0.965200	0.038500	0.7267530000
C482	C	0.624800	0.859300	0.993700	0.6644790000
C483	C	0.654900	0.875200	0.009000	-0.1188230000
C484	C	0.655900	0.911600	0.018600	0.0109770000
C485	C	0.683400	0.926500	0.030400	-0.1469490000
C486	C	0.713000	0.907400	0.031800	-0.0721990000
C487	C	0.715900	0.873300	0.024900	0.0586850000
C488	C	0.686800	0.858400	0.011500	-0.0751460000
C489	C	0.981800	0.668700	0.042800	0.7267530000
C490	C	0.874100	0.601200	0.062500	0.6644790000
C491	C	0.874900	0.666000	0.057800	-0.0751460000
C492	C	0.893000	0.635100	0.058500	-0.1188230000
C493	C	0.927800	0.636400	0.052800	0.0109770000
C494	C	0.944500	0.667300	0.048200	-0.1469490000
C495	C	0.925200	0.697200	0.045400	-0.0721990000
C496	C	0.891400	0.697100	0.049900	0.0586850000
C497	C	0.869200	0.729800	0.044200	-0.1233760000
C498	C	0.873000	0.755400	0.068300	0.2417780000
C499	C	0.889600	0.751800	0.100800	-0.1491390000
C500	C	0.875700	0.776000	0.121700	-0.1491390000
C501	C	0.850100	0.794400	0.102300	0.2371150000
C502	C	0.829400	0.820200	0.115400	-0.0925840000
C503	C	0.806400	0.838100	0.095100	0.2371150000
C504	C	0.783800	0.863700	0.109400	-0.1491390000
C505	C	0.760900	0.876800	0.086800	-0.1491390000
C506	C	0.769000	0.858400	0.055800	0.2417780000
C507	C	0.834200	0.834300	0.150600	0.0119820000
C508	C	0.858500	0.860000	0.155900	0.0370270000
C509	C	0.868400	0.868600	0.189300	-0.1358530000
C510	C	0.854000	0.851500	0.217200	0.0065800000
C511	C	0.829700	0.825700	0.211900	-0.1358530000
C512	C	0.819800	0.817100	0.178500	0.0370270000
C513	C	0.748600	0.852300	0.027200	-0.1233760000
C514	C	0.760800	0.838200	0.996300	0.2417780000
C515	C	0.748000	0.844800	0.961700	-0.1491390000
C516	C	0.765100	0.825500	0.938100	-0.1491390000
C517	C	0.789000	0.805900	0.959400	0.2371150000
C518	C	0.810900	0.780100	0.946100	-0.0925840000
C519	C	0.832000	0.759500	0.966000	0.2371150000
C520	C	0.848000	0.728400	0.953600	-0.1491390000
C521	C	0.862500	0.713500	0.981400	-0.1491390000
C522	C	0.856000	0.735000	0.010900	0.2417780000
C523	C	0.792900	0.747000	0.856700	-0.1358530000
C524	C	0.818500	0.763600	0.838100	0.0065800000
C525	C	0.841500	0.785500	0.854700	-0.1358530000
C526	C	0.838800	0.790800	0.890000	0.0370270000
C527	C	0.813200	0.774100	0.908700	0.0119820000
C528	C	0.790200	0.752200	0.892100	0.0370270000
C529	C	0.317100	0.465200	0.461500	0.7267530000
C530	C	0.375200	0.359300	0.506300	0.6644790000
C531	C	0.345100	0.375200	0.491000	-0.1188230000
C532	C	0.344100	0.411600	0.481400	0.0109770000
C533	C	0.316600	0.426500	0.469600	-0.1469490000
C534	C	0.287000	0.407400	0.468200	-0.0721990000
C535	C	0.284100	0.373300	0.475100	0.0586850000
C536	C	0.313200	0.358400	0.488500	-0.0751460000
C537	C	0.018200	0.168700	0.457200	0.7267530000
C538	C	0.125900	0.101200	0.437500	0.6644790000
C539	C	0.125100	0.166000	0.442200	-0.0751460000
C540	C	0.107000	0.135100	0.441500	-0.1188230000
C541	C	0.072200	0.136400	0.447200	0.0109770000
C542	C	0.055500	0.167300	0.451800	-0.1469490000
C543	C	0.074800	0.197200	0.454600	-0.0721990000
C544	C	0.108600	0.197100	0.450100	0.0586850000
C545	C	0.130800	0.229800	0.455800	-0.1233760000
C546	C	0.127000	0.255400	0.431700	0.2417780000
C547	C	0.110400	0.251800	0.399200	-0.1491390000
C548	C	0.124300	0.276000	0.378300	-0.1491390000
C549	C	0.149900	0.294400	0.397700	0.2371150000
C550	C	0.170600	0.320200	0.384600	-0.0925840000
C551	C	0.193600	0.338100	0.404900	0.2371150000
C552	C	0.216200	0.363700	0.390600	-0.1491390000
C553	C	0.239100	0.376800	0.413200	-0.1491390000
C554	C	0.231000	0.358400	0.444200	0.2417780000
C555	C	0.165800	0.334300	0.349400	0.0119820000
C556	C	0.141500	0.360000	0.344100	0.0370270000
C557	C	0.131600	0.368600	0.310700	-0.1358530000
C558	C	0.146000	0.351500	0.282800	0.0065800000
C559	C	0.170300	0.325700	0.288100	-0.1358530000
C560	C	0.180200	0.317100	0.321500	0.0370270000
C561	C	0.251400	0.352300	0.472800	-0.1233760000
C562	C	0.239200	0.338200	0.503700	0.2417780000
C563	C	0.252000	0.344800	0.538300	-0.1491390000
C564	C	0.234900	0.325500	0.561900	-0.1491390000
C565	C	0.211000	0.305900	0.540600	0.2371150000
C566	C	0.189100	0.280100	0.553900	-0.0925840000
C567	C	0.168000	0.259500	0.534000	0.2371150000
C568	C	0.152000	0.228400	0.546400	-0.1491390000
C569	C	0.137500	0.213500	0.518600	-0.1491390000
C570	C	0.144000	0.235000	0.489100	0.2417780000
C571	C	0.207100	0.247000	0.643300	-0.1358530000
C572	C	0.181500	0.263600	0.661900	0.0065800000
C573	C	0.158500	0.285500	0.645300	-0.1358530000
C574	C	0.161200	0.290800	0.610000	0.0370270000
C575	C	0.186800	0.274100	0.591300	0.0119820000
C576	C	0.209800	0.252200	0.607900	0.0370270000
C577	C	0.038500	0.817100	0.465200	0.7267530000
C578	C	0.993700	0.875200	0.359300	0.6644790000
C579	C	0.009000	0.845100	0.375200	-0.1188230000
C580	C	0.018600	0.844100	0.411600	0.0109770000
C581	C	0.030400	0.816600	0.426500	-0.1469490000
C582	C	0.031800	0.787000	0.407400	-0.0721990000
C583	C	0.024900	0.784100	0.373300	0.0586850000
C584	C	0.011500	0.813200	0.358400	-0.0751460000
C585	C	0.042800	0.518200	0.168700	0.7267530000
C586	C	0.062500	0.625900	0.101200	0.6644790000
C587	C	0.057800	0.625100	0.166000	-0.0751460000
C588	C	0.058500	0.607000	0.135100	-0.1188230000
C589	C	0.052800	0.572200	0.136400	0.0109770000
C590	C	0.048200	0.555500	0.167300	-0.1469490000
C591	C	0.045400	0.574800	0.197200	-0.0721990000
C592	C	0.049900	0.608600	0.197100	0.0586850000
C593	C	0.044200	0.630800	0.229800	-0.1233760000
C594	C	0.068300	0.627000	0.255400	0.2417780000
C595	C	0.100800	0.610400	0.251800	-0.1491390000
C596	C	0.121700	0.624300	0.276000	-0.1491390000
C597	C	0.102300	0.649900	0.294400	0.2371150000
C598	C	0.115400	0.670600	0.320200	-0.0925840000
C599	C	0.095100	0.693600	0.338100	0.2371150000
C600	C	0.109400	0.716200	0.363700	-0.1491390000
C601	C	0.086800	0.739100	0.376800	-0.1491390000
C602	C	0.055800	0.731000	0.358400	0.2417780000
C603	C	0.150600	0.665800	0.334300	0.0119820000
C604	C	0.155900	0.641500	0.360000	0.0370270000
C605	C	0.189300	0.631600	0.368600	-0.1358530000
C606	C	0.217200	0.646000	0.351500	0.0065800000
C607	C	0.211900	0.670300	0.325700	-0.1358530000
C608	C	0.178500	0.680200	0.317100	0.0370270000
C609	C	0.027200	0.751400	0.352300	-0.1233760000
C610	C	0.996300	0.739200	0.338200	0.2417780000
C611	C	0.961700	0.752000	0.344800	-0.1491390000
C612	C	0.938100	0.734900	0.325500	-0.1491390000
C613	C	0.959400	0.711000	0.305900	0.2371150000
C614	C	0.946100	0.689100	0.280100	-0.0925840000
C615	C	0.966000	0.668000	0.259500	0.2371150000
C616	C	0.953600	0.652000	0.228400	-0.1491390000
C617	C	0.981400	0.637500	0.213500	-0.1491390000
C618	C	0.010900	0.644000	0.235000	0.2417780000
C619	C	0.856700	0.707100	0.247000	-0.1358530000
C620	C	0.838100	0.681500	0.263600	0.0065800000
C621	C	0.854700	0.658500	0.285500	-0.1358530000
C622	C	0.890000	0.661200	0.290800	0.0370270000
C623	C	0.908700	0.686800	0.274100	0.0119820000
C624	C	0.892100	0.709800	0.252200	0.0370270000
C625	C	0.461500	0.182900	0.965200	0.7267530000
C626	C	0.506300	0.124800	0.859300	0.6644790000
C627	C	0.491000	0.154900	0.875200	-0.1188230000
C628	C	0.481400	0.155900	0.911600	0.0109770000
C629	C	0.469600	0.183400	0.926500	-0.1469490000
C630	C	0.468200	0.213000	0.907400	-0.0721990000
C631	C	0.475100	0.215900	0.873300	0.0586850000
C632	C	0.488500	0.186800	0.858400	-0.0751460000
C633	C	0.457200	0.481800	0.668700	0.7267530000
C634	C	0.437500	0.374100	0.601200	0.6644790000
C635	C	0.442200	0.374900	0.666000	-0.0751460000
C636	C	0.441500	0.393000	0.635100	-0.1188230000
C637	C	0.447200	0.427800	0.636400	0.0109770000
C638	C	0.451800	0.444500	0.667300	-0.1469490000
C639	C	0.454600	0.425200	0.697200	-0.0721990000
C640	C	0.450100	0.391400	0.697100	0.0586850000
C641	C	0.455800	0.369200	0.729800	-0.1233760000
C642	C	0.431700	0.373000	0.755400	0.2417780000
C643	C	0.399200	0.389600	0.751800	-0.1491390000
C644	C	0.378300	0.375700	0.776000	-0.1491390000
C645	C	0.397700	0.350100	0.794400	0.2371150000
C646	C	0.384600	0.329400	0.820200	-0.0925840000
C647	C	0.404900	0.306400	0.838100	0.2371150000
C648	C	0.390600	0.283800	0.863700	-0.1491390000
C649	C	0.413200	0.260900	0.876800	-0.1491390000
C650	C	0.444200	0.269000	0.858400	0.2417780000
C651	C	0.349400	0.334200	0.834300	0.0119820000
C652	C	0.344100	0.358500	0.860000	0.0370270000
C653	C	0.310700	0.368400	0.868600	-0.1358530000
C654	C	0.282800	0.354000	0.851500	0.0065800000
C655	C	0.288100	0.329700	0.825700	-0.1358530000
C656	C	0.321500	0.319800	0.817100	0.0370270000
C657	C	0.472800	0.248600	0.852300	-0.1233760000
C658	C	0.503700	0.260800	0.838200	0.2417780000
C659	C	0.538300	0.248000	0.844800	-0.1491390000
C660	C	0.561900	0.265100	0.825500	-0.1491390000
C661	C	0.540600	0.289000	0.805900	0.2371150000
C662	C	0.553900	0.310900	0.780100	-0.0925840000
C663	C	0.534000	0.332000	0.759500	0.2371150000
C664	C	0.546400	0.348000	0.728400	-0.1491390000
C665	C	0.518600	0.362500	0.713500	-0.1491390000
C666	C	0.489100	0.356000	0.735000	0.2417780000
C667	C	0.643300	0.292900	0.747000	-0.1358530000
C668	C	0.661900	0.318500	0.763600	0.0065800000
C669	C	0.645300	0.341500	0.785500	-0.1358530000
C670	C	0.610000	0.338800	0.790800	0.0370270000
C671	C	0.591300	0.313200	0.774100	0.0119820000
C672	C	0.607900	0.290200	0.752200	0.0370270000
C673	C	0.961500	0.317100	0.034800	0.7267530000
C674	C	0.006300	0.375200	0.140700	0.6644790000
C675	C	0.991000	0.345100	0.124800	-0.1188230000
C676	C	0.981400	0.344100	0.088400	0.0109770000
C677	C	0.969600	0.316600	0.073500	-0.1469490000
C678	C	0.968200	0.287000	0.092600	-0.0721990000
C679	C	0.975100	0.284100	0.126700	0.0586850000
C680	C	0.988500	0.313200	0.141600	-0.0751460000
C681	C	0.957200	0.018200	0.331300	0.7267530000
C682	C	0.937500	0.125900	0.398800	0.6644790000
C683	C	0.942200	0.125100	0.334000	-0.0751460000
C684	C	0.941500	0.107000	0.364900	-0.1188230000
C685	C	0.947200	0.072200	0.363600	0.0109770000
C686	C	0.951800	0.055500	0.332700	-0.1469490000
C687	C	0.954600	0.074800	0.302800	-0.0721990000
C688	C	0.950100	0.108600	0.302900	0.0586850000
C689	C	0.955800	0.130800	0.270200	-0.1233760000
C690	C	0.931700	0.127000	0.244600	0.2417780000
C691	C	0.899200	0.110400	0.248200	-0.1491390000
C692	C	0.878300	0.124300	0.224000	-0.1491390000
C693	C	0.897700	0.149900	0.205600	0.2371150000
C694	C	0.884600	0.170600	0.179800	-0.0925840000
C695	C	0.904900	0.193600	0.161900	0.2371150000
C696	C	0.890600	0.216200	0.136300	-0.1491390000
C697	C	0.913200	0.239100	0.123200	-0.1491390000
C698	C	0.944200	0.231000	0.141600	0.2417780000
C699	C	0.849400	0.165800	0.165700	0.0119820000
C700	C	0.844100	0.141500	0.140000	0.0370270000
C701	C	0.810700	0.131600	0.131400	-0.1358530000
C702	C	0.782800	0.146000	0.148500	0.0065800000
C703	C	0.788100	0.170300	0.174300	-0.1358530000
C704	C	0.821500	0.180200	0.182900	0.0370270000
C705	C	0.972800	0.251400	0.147700	-0.1233760000
C706	C	0.003700	0.239200	0.161800	0.2417780000
C707	C	0.038300	0.252000	0.155200	-0.1491390000
C708	C	0.061900	0.234900	0.174500	-0.1491390000
C709	C	0.040600	0.211000	0.194100	0.2371150000
C710	C	0.053900	0.189100	0.219900	-0.0925840000
C711	C	0.034000	0.168000	0.240500	0.2371150000
C712	C	0.046400	0.152000	0.271600	-0.1491390000
C713	C	0.018600	0.137500	0.286500	-0.1491390000
C714	C	0.989100	0.144000	0.265000	0.2417780000
C715	C	0.143300	0.207100	0.253000	-0.1358530000
C716	C	0.161900	0.181500	0.236400	0.0065800000
C717	C	0.145300	0.158500	0.214500	-0.1358530000
C718	C	0.110000	0.161200	0.209200	0.0370270000
C719	C	0.091300	0.186800	0.225900	0.0119820000
C720	C	0.107900	0.209800	0.247800	0.0370270000
C721	C	0.538500	0.682900	0.534800	0.7267530000
C722	C	0.493700	0.624800	0.640700	0.6644790000
C723	C	0.509000	0.654900	0.624800	-0.1188230000
C724	C	0.518600	0.655900	0.588400	0.0109770000
C725	C	0.530400	0.683400	0.573500	-0.1469490000
C726	C	0.531800	0.713000	0.592600	-0.0721990000
C727	C	0.524900	0.715900	0.626700	0.0586850000
C728	C	0.511500	0.686800	0.641600	-0.0751460000
C729	C	0.542800	0.981800	0.831300	0.7267530000
C730	C	0.562500	0.874100	0.898800	0.6644790000
C731	C	0.557800	0.874900	0.834000	-0.0751460000
C732	C	0.558500	0.893000	0.864900	-0.1188230000
C733	C	0.552800	0.927800	0.863600	0.0109770000
C734	C	0.548200	0.944500	0.832700	-0.1469490000
C735	C	0.545400	0.925200	0.802800	-0.0721990000
C736	C	0.549900	0.891400	0.802900	0.0586850000
C737	C	0.544200	0.869200	0.770200	-0.1233760000
C738	C	0.568300	0.873000	0.744600	0.2417780000
C739	C	0.600800	0.889600	0.748200	-0.1491390000
C740	C	0.621700	0.875700	0.724000	-0.1491390000
C741	C	0.602300	0.850100	0.705600	0.2371150000
C742	C	0.615400	0.829400	0.679800	-0.0925840000
C743	C	0.595100	0.806400	0.661900	0.2371150000
C744	C	0.609400	0.783800	0.636300	-0.1491390000
C745	C	0.586800	0.760900	0.623200	-0.1491390000
C746	C	0.555800	0.769000	0.641600	0.2417780000
C747	C	0.650600	0.834200	0.665700	0.0119820000
C748	C	0.655900	0.858500	0.640000	0.0370270000
C749	C	0.689300	0.868400	0.631400	-0.1358530000
C750	C	0.717200	0.854000	0.648500	0.0065800000
C751	C	0.711900	0.829700	0.674300	-0.1358530000
C752	C	0.678500	0.819800	0.682900	0.0370270000
C753	C	0.527200	0.748600	0.647700	-0.1233760000
C754	C	0.496300	0.760800	0.661800	0.2417780000
C755	C	0.461700	0.748000	0.655200	-0.1491390000
C756	C	0.438100	0.765100	0.674500	-0.1491390000
C757	C	0.459400	0.789000	0.694100	0.2371150000
C758	C	0.446100	0.810900	0.719900	-0.0925840000
C759	C	0.466000	0.832000	0.740500	0.2371150000
C760	C	0.453600	0.848000	0.771600	-0.1491390000
C761	C	0.481400	0.862500	0.786500	-0.1491390000
C762	C	0.510900	0.856000	0.765000	0.2417780000
C763	C	0.356700	0.792900	0.753000	-0.1358530000
C764	C	0.338100	0.818500	0.736400	0.0065800000
C765	C	0.354700	0.841500	0.714500	-0.1358530000
C766	C	0.390000	0.838800	0.709200	0.0370270000
C767	C	0.408700	0.813200	0.725900	0.0119820000
C768	C	0.392100	0.790200	0.747800	0.0370270000
C769	C	0.465200	0.038500	0.817100	0.7267530000
C770	C	0.359300	0.993700	0.875200	0.6644790000
C771	C	0.375200	0.009000	0.845100	-0.1188230000
C772	C	0.411600	0.018600	0.844100	0.0109770000
C773	C	0.426500	0.030400	0.816600	-0.1469490000
C774	C	0.407400	0.031800	0.787000	-0.0721990000
C775	C	0.373300	0.024900	0.784100	0.0586850000
C776	C	0.358400	0.011500	0.813200	-0.0751460000
C777	C	0.168700	0.042800	0.518200	0.7267530000
C778	C	0.101200	0.062500	0.625900	0.6644790000
C779	C	0.166000	0.057800	0.625100	-0.0751460000
C780	C	0.135100	0.058500	0.607000	-0.1188230000
C781	C	0.136400	0.052800	0.572200	0.0109770000
C782	C	0.167300	0.048200	0.555500	-0.1469490000
C783	C	0.197200	0.045400	0.574800	-0.0721990000
C784	C	0.197100	0.049900	0.608600	0.0586850000
C785	C	0.229800	0.044200	0.630800	-0.1233760000
C786	C	0.255400	0.068300	0.627000	0.2417780000
C787	C	0.251800	0.100800	0.610400	-0.1491390000
C788	C	0.276000	0.121700	0.624300	-0.1491390000
C789	C	0.294400	0.102300	0.649900	0.2371150000
C790	C	0.320200	0.115400	0.670600	-0.0925840000
C791	C	0.338100	0.095100	0.693600	0.2371150000
C792	C	0.363700	0.109400	0.716200	-0.1491390000
C793	C	0.376800	0.086800	0.739100	-0.1491390000
C794	C	0.358400	0.055800	0.731000	0.2417780000
C795	C	0.334300	0.150600	0.665800	0.0119820000
C796	C	0.360000	0.155900	0.641500	0.0370270000
C797	C	0.368600	0.189300	0.631600	-0.1358530000
C798	C	0.351500	0.217200	0.646000	0.0065800000
C799	C	0.325700	0.211900	0.670300	-0.1358530000
C800	C	0.317100	0.178500	0.680200	0.0370270000
C801	C	0.352300	0.027200	0.751400	-0.1233760000
C802	C	0.338200	0.996300	0.739200	0.2417780000
C803	C	0.344800	0.961700	0.752000	-0.1491390000
C804	C	0.325500	0.938100	0.734900	-0.1491390000
C805	C	0.305900	0.959400	0.711000	0.2371150000
C806	C	0.280100	0.946100	0.689100	-0.0925840000
C807	C	0.259500	0.966000	0.668000	0.2371150000
C808	C	0.228400	0.953600	0.652000	-0.1491390000
C809	C	0.213500	0.981400	0.637500	-0.1491390000
C810	C	0.235000	0.010900	0.644000	0.2417780000
C811	C	0.247000	0.856700	0.707100	-0.1358530000
C812	C	0.263600	0.838100	0.681500	0.0065800000
C813	C	0.285500	0.854700	0.658500	-0.1358530000
C814	C	0.290800	0.890000	0.661200	0.0370270000
C815	C	0.274100	0.908700	0.686800	0.0119820000
C816	C	0.252200	0.892100	0.709800	0.0370270000
C817	C	0.965200	0.461500	0.182900	0.7267530000
C818	C	0.859300	0.506300	0.124800	0.6644790000
C819	C	0.875200	0.491000	0.154900	-0.1188230000
C820	C	0.911600	0.481400	0.155900	0.0109770000
C821	C	0.926500	0.469600	0.183400	-0.1469490000
C822	C	0.907400	0.468200	0.213000	-0.0721990000
C823	C	0.873300	0.475100	0.215900	0.0586850000
C824	C	0.858400	0.488500	0.186800	-0.0751460000
C825	C	0.668700	0.457200	0.481800	0.7267530000
C826	C	0.601200	0.437500	0.374100	0.6644790000
C827	C	0.666000	0.442200	0.374900	-0.0751460000
C828	C	0.635100	0.441500	0.393000	-0.1188230000
C829	C	0.636400	0.447200	0.427800	0.0109770000
C830	C	0.667300	0.451800	0.444500	-0.1469490000
C831	C	0.697200	0.454600	0.425200	-0.0721990000
C832	C	0.697100	0.450100	0.391400	0.0586850000
C833	C	0.729800	0.455800	0.369200	-0.1233760000
C834	C	0.755400	0.431700	0.373000	0.2417780000
C835	C	0.751800	0.399200	0.389600	-0.1491390000
C836	C	0.776000	0.378300	0.375700	-0.1491390000
C837	C	0.794400	0.397700	0.350100	0.2371150000
C838	C	0.820200	0.384600	0.329400	-0.0925840000
C839	C	0.838100	0.404900	0.306400	0.2371150000
C840	C	0.863700	0.390600	0.283800	-0.1491390000
C841	C	0.876800	0.413200	0.260900	-0.1491390000
C842	C	0.858400	0.444200	0.269000	0.2417780000
C843	C	0.834300	0.349400	0.334200	0.0119820000
C844	C	0.860000	0.344100	0.358500	0.0370270000
C845	C	0.868600	0.310700	0.368400	-0.1358530000
C846	C	0.851500	0.282800	0.354000	0.0065800000
C847	C	0.825700	0.288100	0.329700	-0.1358530000
C848	C	0.817100	0.321500	0.319800	0.0370270000
C849	C	0.852300	0.472800	0.248600	-0.1233760000
C850	C	0.838200	0.503700	0.260800	0.2417780000
C851	C	0.844800	0.538300	0.248000	-0.1491390000
C852	C	0.825500	0.561900	0.265100	-0.1491390000
C853	C	0.805900	0.540600	0.289000	0.2371150000
C854	C	0.780100	0.553900	0.310900	-0.0925840000
C855	C	0.759500	0.534000	0.332000	0.2371150000
C856	C	0.728400	0.546400	0.348000	-0.1491390000
C857	C	0.713500	0.518600	0.362500	-0.1491390000
C858	C	0.735000	0.489100	0.356000	0.2417780000
C859	C	0.747000	0.643300	0.292900	-0.1358530000
C860	C	0.763600	0.661900	0.318500	0.0065800000
C861	C	0.785500	0.645300	0.341500	-0.1358530000
C862	C	0.790800	0.610000	0.338800	0.0370270000
C863	C	0.774100	0.591300	0.313200	0.0119820000
C864	C	0.752200	0.607900	0.290200	0.0370270000
C865	C	0.034800	0.961500	0.317100	0.7267530000
C866	C	0.140700	0.006300	0.375200	0.6644790000
C867	C	0.124800	0.991000	0.345100	-0.1188230000
C868	C	0.088400	0.981400	0.344100	0.0109770000
C869	C	0.073500	0.969600	0.316600	-0.1469490000
C870	C	0.092600	0.968200	0.287000	-0.0721990000
C871	C	0.126700	0.975100	0.284100	0.0586850000
C872	C	0.141600	0.988500	0.313200	-0.0751460000
C873	C	0.331300	0.957200	0.018200	0.7267530000
C874	C	0.398800	0.937500	0.125900	0.6644790000
C875	C	0.334000	0.942200	0.125100	-0.0751460000
C876	C	0.364900	0.941500	0.107000	-0.1188230000
C877	C	0.363600	0.947200	0.072200	0.0109770000
C878	C	0.332700	0.951800	0.055500	-0.1469490000
C879	C	0.302800	0.954600	0.074800	-0.0721990000
C880	C	0.302900	0.950100	0.108600	0.0586850000
C881	C	0.270200	0.955800	0.130800	-0.1233760000
C882	C	0.244600	0.931700	0.127000	0.2417780000
C883	C	0.248200	0.899200	0.110400	-0.1491390000
C884	C	0.224000	0.878300	0.124300	-0.1491390000
C885	C	0.205600	0.897700	0.149900	0.2371150000
C886	C	0.179800	0.884600	0.170600	-0.0925840000
C887	C	0.161900	0.904900	0.193600	0.2371150000
C888	C	0.136300	0.890600	0.216200	-0.1491390000
C889	C	0.123200	0.913200	0.239100	-0.1491390000
C890	C	0.141600	0.944200	0.231000	0.2417780000
C891	C	0.165700	0.849400	0.165800	0.0119820000
C892	C	0.140000	0.844100	0.141500	0.0370270000
C893	C	0.131400	0.810700	0.131600	-0.1358530000
C894	C	0.148500	0.782800	0.146000	0.0065800000
C895	C	0.174300	0.788100	0.170300	-0.1358530000
C896	C	0.182900	0.821500	0.180200	0.0370270000
C897	C	0.147700	0.972800	0.251400	-0.1233760000
C898	C	0.161800	0.003700	0.239200	0.2417780000
C899	C	0.155200	0.038300	0.252000	-0.1491390000
C900	C	0.174500	0.061900	0.234900	-0.1491390000
C901	C	0.194100	0.040600	0.211000	0.2371150000
C902	C	0.219900	0.053900	0.189100	-0.0925840000
C903	C	0.240500	0.034000	0.168000	0.2371150000
C904	C	0.271600	0.046400	0.152000	-0.1491390000
C905	C	0.286500	0.018600	0.137500	-0.1491390000
C906	C	0.265000	0.989100	0.144000	0.2417780000
C907	C	0.253000	0.143300	0.207100	-0.1358530000
C908	C	0.236400	0.161900	0.181500	0.0065800000
C909	C	0.214500	0.145300	0.158500	-0.1358530000
C910	C	0.209200	0.110000	0.161200	0.0370270000
C911	C	0.225900	0.091300	0.186800	0.0119820000
C912	C	0.247800	0.107900	0.209800	0.0370270000
C913	C	0.534800	0.538500	0.682900	0.7267530000
C914	C	0.640700	0.493700	0.624800	0.6644790000
C915	C	0.624800	0.509000	0.654900	-0.1188230000
C916	C	0.588400	0.518600	0.655900	0.0109770000
C917	C	0.573500	0.530400	0.683400	-0.1469490000
C918	C	0.592600	0.531800	0.713000	-0.0721990000
C919	C	0.626700	0.524900	0.715900	0.0586850000
C920	C	0.641600	0.511500	0.686800	-0.0751460000
C921	C	0.831300	0.542800	0.981800	0.7267530000
C922	C	0.898800	0.562500	0.874100	0.6644790000
C923	C	0.834000	0.557800	0.874900	-0.0751460000
C924	C	0.864900	0.558500	0.893000	-0.1188230000
C925	C	0.863600	0.552800	0.927800	0.0109770000
C926	C	0.832700	0.548200	0.944500	-0.1469490000
C927	C	0.802800	0.545400	0.925200	-0.0721990000
C928	C	0.802900	0.549900	0.891400	0.0586850000
C929	C	0.770200	0.544200	0.869200	-0.1233760000
C930	C	0.744600	0.568300	0.873000	0.2417780000
C931	C	0.748200	0.600800	0.889600	-0.1491390000
C932	C	0.724000	0.621700	0.875700	-0.1491390000
C933	C	0.705600	0.602300	0.850100	0.2371150000
C934	C	0.679800	0.615400	0.829400	-0.0925840000
C935	C	0.661900	0.595100	0.806400	0.2371150000
C936	C	0.636300	0.609400	0.783800	-0.1491390000
C937	C	0.623200	0.586800	0.760900	-0.1491390000
C938	C	0.641600	0.555800	0.769000	0.2417780000
C939	C	0.665700	0.650600	0.834200	0.0119820000
C940	C	0.640000	0.655900	0.858500	0.0370270000
C941	C	0.631400	0.689300	0.868400	-0.1358530000
C942	C	0.648500	0.717200	0.854000	0.0065800000
C943	C	0.674300	0.711900	0.829700	-0.1358530000
C944	C	0.682900	0.678500	0.819800	0.0370270000
C945	C	0.647700	0.527200	0.748600	-0.1233760000
C946	C	0.661800	0.496300	0.760800	0.2417780000
C947	C	0.655200	0.461700	0.748000	-0.1491390000
C948	C	0.674500	0.438100	0.765100	-0.1491390000
C949	C	0.694100	0.459400	0.789000	0.2371150000
C950	C	0.719900	0.446100	0.810900	-0.0925840000
C951	C	0.740500	0.466000	0.832000	0.2371150000
C952	C	0.771600	0.453600	0.848000	-0.1491390000
C953	C	0.786500	0.481400	0.862500	-0.1491390000
C954	C	0.765000	0.510900	0.856000	0.2417780000
C955	C	0.753000	0.356700	0.792900	-0.1358530000
C956	C	0.736400	0.338100	0.818500	0.0065800000
C957	C	0.714500	0.354700	0.841500	-0.1358530000
C958	C	0.709200	0.390000	0.838800	0.0370270000
C959	C	0.725900	0.408700	0.813200	0.0119820000
C960	C	0.747800	0.392100	0.790200	0.0370270000
C961	C	0.817100	0.465200	0.038500	0.7267530000
C962	C	0.875200	0.359300	0.993700	0.6644790000
C963	C	0.845100	0.375200	0.009000	-0.1188230000
C964	C	0.844100	0.411600	0.018600	0.0109770000
C965	C	0.816600	0.426500	0.030400	-0.1469490000
C966	C	0.787000	0.407400	0.031800	-0.0721990000
C967	C	0.784100	0.373300	0.024900	0.0586850000
C968	C	0.813200	0.358400	0.011500	-0.0751460000
C969	C	0.518200	0.168700	0.042800	0.7267530000
C970	C	0.625900	0.101200	0.062500	0.6644790000
C971	C	0.625100	0.166000	0.057800	-0.0751460000
C972	C	0.607000	0.135100	0.058500	-0.1188230000
C973	C	0.572200	0.136400	0.052800	0.0109770000
C974	C	0.555500	0.167300	0.048200	-0.1469490000
C975	C	0.574800	0.197200	0.045400	-0.0721990000
C976	C	0.608600	0.197100	0.049900	0.0586850000
C977	C	0.630800	0.229800	0.044200	-0.1233760000
C978	C	0.627000	0.255400	0.068300	0.2417780000
C979	C	0.610400	0.251800	0.100800	-0.1491390000
C980	C	0.624300	0.276000	0.121700	-0.1491390000
C981	C	0.649900	0.294400	0.102300	0.2371150000
C982	C	0.670600	0.320200	0.115400	-0.0925840000
C983	C	0.693600	0.338100	0.095100	0.2371150000
C984	C	0.716200	0.363700	0.109400	-0.1491390000
C985	C	0.739100	0.376800	0.086800	-0.1491390000
C986	C	0.731000	0.358400	0.055800	0.2417780000
C987	C	0.665800	0.334300	0.150600	0.0119820000
C988	C	0.641500	0.360000	0.155900	0.0370270000
C989	C	0.631600	0.368600	0.189300	-0.1358530000
C990	C	0.646000	0.351500	0.217200	0.0065800000
C991	C	0.670300	0.325700	0.211900	-0.1358530000
C992	C	0.680200	0.317100	0.178500	0.0370270000
C993	C	0.751400	0.352300	0.027200	-0.1233760000
C994	C	0.739200	0.338200	0.996300	0.2417780000
C995	C	0.752000	0.344800	0.961700	-0.1491390000
C996	C	0.734900	0.325500	0.938100	-0.1491390000
C997	C	0.711000	0.305900	0.959400	0.2371150000
C998	C	0.689100	0.280100	0.946100	-0.0925840000
C999	C	0.668000	0.259500	0.966000	0.2371150000
C1000	C	0.652000	0.228400	0.953600	-0.1491390000
C1001	C	0.637500	0.213500	0.981400	-0.1491390000
C1002	C	0.644000	0.235000	0.010900	0.2417780000
C1003	C	0.707100	0.247000	0.856700	-0.1358530000
C1004	C	0.681500	0.263600	0.838100	0.0065800000
C1005	C	0.658500	0.285500	0.854700	-0.1358530000
C1006	C	0.661200	0.290800	0.890000	0.0370270000
C1007	C	0.686800	0.274100	0.908700	0.0119820000
C1008	C	0.709800	0.252200	0.892100	0.0370270000
C1009	C	0.182900	0.965200	0.461500	0.7267530000
C1010	C	0.124800	0.859300	0.506300	0.6644790000
C1011	C	0.154900	0.875200	0.491000	-0.1188230000
C1012	C	0.155900	0.911600	0.481400	0.0109770000
C1013	C	0.183400	0.926500	0.469600	-0.1469490000
C1014	C	0.213000	0.907400	0.468200	-0.0721990000
C1015	C	0.215900	0.873300	0.475100	0.0586850000
C1016	C	0.186800	0.858400	0.488500	-0.0751460000
C1017	C	0.481800	0.668700	0.457200	0.7267530000
C1018	C	0.374100	0.601200	0.437500	0.6644790000
C1019	C	0.374900	0.666000	0.442200	-0.0751460000
C1020	C	0.393000	0.635100	0.441500	-0.1188230000
C1021	C	0.427800	0.636400	0.447200	0.0109770000
C1022	C	0.444500	0.667300	0.451800	-0.1469490000
C1023	C	0.425200	0.697200	0.454600	-0.0721990000
C1024	C	0.391400	0.697100	0.450100	0.0586850000
C1025	C	0.369200	0.729800	0.455800	-0.1233760000
C1026	C	0.373000	0.755400	0.431700	0.2417780000
C1027	C	0.389600	0.751800	0.399200	-0.1491390000
C1028	C	0.375700	0.776000	0.378300	-0.1491390000
C1029	C	0.350100	0.794400	0.397700	0.2371150000
C1030	C	0.329400	0.820200	0.384600	-0.0925840000
C1031	C	0.306400	0.838100	0.404900	0.2371150000
C1032	C	0.283800	0.863700	0.390600	-0.1491390000
C1033	C	0.260900	0.876800	0.413200	-0.1491390000
C1034	C	0.269000	0.858400	0.444200	0.2417780000
C1035	C	0.334200	0.834300	0.349400	0.0119820000
C1036	C	0.358500	0.860000	0.344100	0.0370270000
C1037	C	0.368400	0.868600	0.310700	-0.1358530000
C1038	C	0.354000	0.851500	0.282800	0.0065800000
C1039	C	0.329700	0.825700	0.288100	-0.1358530000
C1040	C	0.319800	0.817100	0.321500	0.0370270000
C1041	C	0.248600	0.852300	0.472800	-0.1233760000
C1042	C	0.260800	0.838200	0.503700	0.2417780000
C1043	C	0.248000	0.844800	0.538300	-0.1491390000
C1044	C	0.265100	0.825500	0.561900	-0.1491390000
C1045	C	0.289000	0.805900	0.540600	0.2371150000
C1046	C	0.310900	0.780100	0.553900	-0.0925840000
C1047	C	0.332000	0.759500	0.534000	0.2371150000
C1048	C	0.348000	0.728400	0.546400	-0.1491390000
C1049	C	0.362500	0.713500	0.518600	-0.1491390000
C1050	C	0.356000	0.735000	0.489100	0.2417780000
C1051	C	0.292900	0.747000	0.643300	-0.1358530000
C1052	C	0.318500	0.763600	0.661900	0.0065800000
C1053	C	0.341500	0.785500	0.645300	-0.1358530000
C1054	C	0.338800	0.790800	0.610000	0.0370270000
C1055	C	0.313200	0.774100	0.591300	0.0119820000
C1056	C	0.290200	0.752200	0.607900	0.0370270000
C1057	C	0.317100	0.034800	0.961500	0.7267530000
C1058	C	0.375200	0.140700	0.006300	0.6644790000
C1059	C	0.345100	0.124800	0.991000	-0.1188230000
C1060	C	0.344100	0.088400	0.981400	0.0109770000
C1061	C	0.316600	0.073500	0.969600	-0.1469490000
C1062	C	0.287000	0.092600	0.968200	-0.0721990000
C1063	C	0.284100	0.126700	0.975100	0.0586850000
C1064	C	0.313200	0.141600	0.988500	-0.0751460000
C1065	C	0.018200	0.331300	0.957200	0.7267530000
C1066	C	0.125900	0.398800	0.937500	0.6644790000
C1067	C	0.125100	0.334000	0.942200	-0.0751460000
C1068	C	0.107000	0.364900	0.941500	-0.1188230000
C1069	C	0.072200	0.363600	0.947200	0.0109770000
C1070	C	0.055500	0.332700	0.951800	-0.1469490000
C1071	C	0.074800	0.302800	0.954600	-0.0721990000
C1072	C	0.108600	0.302900	0.950100	0.0586850000
C1073	C	0.130800	0.270200	0.955800	-0.1233760000
C1074	C	0.127000	0.244600	0.931700	0.2417780000
C1075	C	0.110400	0.248200	0.899200	-0.1491390000
C1076	C	0.124300	0.224000	0.878300	-0.1491390000
C1077	C	0.149900	0.205600	0.897700	0.2371150000
C1078	C	0.170600	0.179800	0.884600	-0.0925840000
C1079	C	0.193600	0.161900	0.904900	0.2371150000
C1080	C	0.216200	0.136300	0.890600	-0.1491390000
C1081	C	0.239100	0.123200	0.913200	-0.1491390000
C1082	C	0.231000	0.141600	0.944200	0.2417780000
C1083	C	0.165800	0.165700	0.849400	0.0119820000
C1084	C	0.141500	0.140000	0.844100	0.0370270000
C1085	C	0.131600	0.131400	0.810700	-0.1358530000
C1086	C	0.146000	0.148500	0.782800	0.0065800000
C1087	C	0.170300	0.174300	0.788100	-0.1358530000
C1088	C	0.180200	0.182900	0.821500	0.0370270000
C1089	C	0.251400	0.147700	0.972800	-0.1233760000
C1090	C	0.239200	0.161800	0.003700	0.2417780000
C1091	C	0.252000	0.155200	0.038300	-0.1491390000
C1092	C	0.234900	0.174500	0.061900	-0.1491390000
C1093	C	0.211000	0.194100	0.040600	0.2371150000
C1094	C	0.189100	0.219900	0.053900	-0.0925840000
C1095	C	0.168000	0.240500	0.034000	0.2371150000
C1096	C	0.152000	0.271600	0.046400	-0.1491390000
C1097	C	0.137500	0.286500	0.018600	-0.1491390000
C1098	C	0.144000	0.265000	0.989100	0.2417780000
C1099	C	0.207100	0.253000	0.143300	-0.1358530000
C1100	C	0.181500	0.236400	0.161900	0.0065800000
C1101	C	0.158500	0.214500	0.145300	-0.1358530000
C1102	C	0.161200	0.209200	0.110000	0.0370270000
C1103	C	0.186800	0.225900	0.091300	0.0119820000
C1104	C	0.209800	0.247800	0.107900	0.0370270000
C1105	C	0.682900	0.534800	0.538500	0.7267530000
C1106	C	0.624800	0.640700	0.493700	0.6644790000
C1107	C	0.654900	0.624800	0.509000	-0.1188230000
C1108	C	0.655900	0.588400	0.518600	0.0109770000
C1109	C	0.683400	0.573500	0.530400	-0.1469490000
C1110	C	0.713000	0.592600	0.531800	-0.0721990000
C1111	C	0.715900	0.626700	0.524900	0.0586850000
C1112	C	0.686800	0.641600	0.511500	-0.0751460000
C1113	C	0.981800	0.831300	0.542800	0.7267530000
C1114	C	0.874100	0.898800	0.562500	0.6644790000
C1115	C	0.874900	0.834000	0.557800	-0.0751460000
C1116	C	0.893000	0.864900	0.558500	-0.1188230000
C1117	C	0.927800	0.863600	0.552800	0.0109770000
C1118	C	0.944500	0.832700	0.548200	-0.1469490000
C1119	C	0.925200	0.802800	0.545400	-0.0721990000
C1120	C	0.891400	0.802900	0.549900	0.0586850000
C1121	C	0.869200	0.770200	0.544200	-0.1233760000
C1122	C	0.873000	0.744600	0.568300	0.2417780000
C1123	C	0.889600	0.748200	0.600800	-0.1491390000
C1124	C	0.875700	0.724000	0.621700	-0.1491390000
C1125	C	0.850100	0.705600	0.602300	0.2371150000
C1126	C	0.829400	0.679800	0.615400	-0.0925840000
C1127	C	0.806400	0.661900	0.595100	0.2371150000
C1128	C	0.783800	0.636300	0.609400	-0.1491390000
C1129	C	0.760900	0.623200	0.586800	-0.1491390000
C1130	C	0.769000	0.641600	0.555800	0.2417780000
C1131	C	0.834200	0.665700	0.650600	0.0119820000
C1132	C	0.858500	0.640000	0.655900	0.0370270000
C1133	C	0.868400	0.631400	0.689300	-0.1358530000
C1134	C	0.854000	0.648500	0.717200	0.0065800000
C1135	C	0.829700	0.674300	0.711900	-0.1358530000
C1136	C	0.819800	0.682900	0.678500	0.0370270000
C1137	C	0.748600	0.647700	0.527200	-0.1233760000
C1138	C	0.760800	0.661800	0.496300	0.2417780000
C1139	C	0.748000	0.655200	0.461700	-0.1491390000
C1140	C	0.765100	0.674500	0.438100	-0.1491390000
C1141	C	0.789000	0.694100	0.459400	0.2371150000
C1142	C	0.810900	0.719900	0.446100	-0.0925840000
C1143	C	0.832000	0.740500	0.466000	0.2371150000
C1144	C	0.848000	0.771600	0.453600	-0.1491390000
C1145	C	0.862500	0.786500	0.481400	-0.1491390000
C1146	C	0.856000	0.765000	0.510900	0.2417780000
C1147	C	0.792900	0.753000	0.356700	-0.1358530000
C1148	C	0.818500	0.736400	0.338100	0.0065800000
C1149	C	0.841500	0.714500	0.354700	-0.1358530000
C1150	C	0.838800	0.709200	0.390000	0.0370270000
C1151	C	0.813200	0.725900	0.408700	0.0119820000
C1152	C	0.790200	0.747800	0.392100	0.0370270000
Br1	Br	0.084500	0.255700	0.771700	-0.0551260000
Br2	Br	0.827100	0.289300	0.719300	-0.0551260000
Br3	Br	0.880910	0.382790	0.619930	-0.0551260000
Br4	Br	0.088200	0.370300	0.678200	-0.0551260000
Br5	Br	0.415500	0.744300	0.271700	-0.0551260000
Br6	Br	0.672900	0.710700	0.219300	-0.0551260000
Br7	Br	0.619090	0.617210	0.119930	-0.0551260000
Br8	Br	0.411800	0.629700	0.178200	-0.0551260000
Br9	Br	0.915500	0.755700	0.728300	-0.0551260000
Br10	Br	0.172900	0.789300	0.780700	-0.0551260000
Br11	Br	0.119090	0.882790	0.880070	-0.0551260000
Br12	Br	0.911800	0.870300	0.821800	-0.0551260000
Br13	Br	0.584500	0.244300	0.228300	-0.0551260000
Br14	Br	0.327100	0.210700	0.280700	-0.0551260000
Br15	Br	0.380910	0.117210	0.380070	-0.0551260000
Br16	Br	0.588200	0.129700	0.321800	-0.0551260000
Br17	Br	0.771700	0.084500	0.255700	-0.0551260000
Br18	Br	0.719300	0.827100	0.289300	-0.0551260000
Br19	Br	0.619930	0.880910	0.382790	-0.0551260000
Br20	Br	0.678200	0.088200	0.370300	-0.0551260000
Br21	Br	0.271700	0.415500	0.744300	-0.0551260000
Br22	Br	0.219300	0.672900	0.710700	-0.0551260000
Br23	Br	0.119930	0.619090	0.617210	-0.0551260000
Br24	Br	0.178200	0.411800	0.629700	-0.0551260000
Br25	Br	0.728300	0.915500	0.755700	-0.0551260000
Br26	Br	0.780700	0.172900	0.789300	-0.0551260000
Br27	Br	0.880070	0.119090	0.882790	-0.0551260000
Br28	Br	0.821800	0.911800	0.870300	-0.0551260000
Br29	Br	0.228300	0.584500	0.244300	-0.0551260000
Br30	Br	0.280700	0.327100	0.210700	-0.0551260000
Br31	Br	0.380070	0.380910	0.117210	-0.0551260000
Br32	Br	0.321800	0.588200	0.129700	-0.0551260000
Br33	Br	0.255700	0.771700	0.084500	-0.0551260000
Br34	Br	0.289300	0.719300	0.827100	-0.0551260000
Br35	Br	0.382790	0.619930	0.880910	-0.0551260000
Br36	Br	0.370300	0.678200	0.088200	-0.0551260000
Br37	Br	0.744300	0.271700	0.415500	-0.0551260000
Br38	Br	0.710700	0.219300	0.672900	-0.0551260000
Br39	Br	0.617210	0.119930	0.619090	-0.0551260000
Br40	Br	0.629700	0.178200	0.411800	-0.0551260000
Br41	Br	0.755700	0.728300	0.915500	-0.0551260000
Br42	Br	0.789300	0.780700	0.172900	-0.0551260000
Br43	Br	0.882790	0.880070	0.119090	-0.0551260000
Br44	Br	0.870300	0.821800	0.911800	-0.0551260000
Br45	Br	0.244300	0.228300	0.584500	-0.0551260000
Br46	Br	0.210700	0.280700	0.327100	-0.0551260000
Br47	Br	0.117210	0.380070	0.380910	-0.0551260000
Br48	Br	0.129700	0.321800	0.588200	-0.0551260000
Br49	Br	0.915500	0.744300	0.228300	-0.0551260000
Br50	Br	0.172900	0.710700	0.280700	-0.0551260000
Br51	Br	0.119090	0.617210	0.380070	-0.0551260000
Br52	Br	0.911800	0.629700	0.321800	-0.0551260000
Br53	Br	0.584500	0.255700	0.728300	-0.0551260000
Br54	Br	0.327100	0.289300	0.780700	-0.0551260000
Br55	Br	0.380910	0.382790	0.880070	-0.0551260000
Br56	Br	0.588200	0.370300	0.821800	-0.0551260000
Br57	Br	0.084500	0.244300	0.271700	-0.0551260000
Br58	Br	0.827100	0.210700	0.219300	-0.0551260000
Br59	Br	0.880910	0.117210	0.119930	-0.0551260000
Br60	Br	0.088200	0.129700	0.178200	-0.0551260000
Br61	Br	0.415500	0.755700	0.771700	-0.0551260000
Br62	Br	0.672900	0.789300	0.719300	-0.0551260000
Br63	Br	0.619090	0.882790	0.619930	-0.0551260000
Br64	Br	0.411800	0.870300	0.678200	-0.0551260000
Br65	Br	0.228300	0.915500	0.744300	-0.0551260000
Br66	Br	0.280700	0.172900	0.710700	-0.0551260000
Br67	Br	0.380070	0.119090	0.617210	-0.0551260000
Br68	Br	0.321800	0.911800	0.629700	-0.0551260000
Br69	Br	0.728300	0.584500	0.255700	-0.0551260000
Br70	Br	0.780700	0.327100	0.289300	-0.0551260000
Br71	Br	0.880070	0.380910	0.382790	-0.0551260000
Br72	Br	0.821800	0.588200	0.370300	-0.0551260000
Br73	Br	0.271700	0.084500	0.244300	-0.0551260000
Br74	Br	0.219300	0.827100	0.210700	-0.0551260000
Br75	Br	0.119930	0.880910	0.117210	-0.0551260000
Br76	Br	0.178200	0.088200	0.129700	-0.0551260000
Br77	Br	0.771700	0.415500	0.755700	-0.0551260000
Br78	Br	0.719300	0.672900	0.789300	-0.0551260000
Br79	Br	0.619930	0.619090	0.882790	-0.0551260000
Br80	Br	0.678200	0.411800	0.870300	-0.0551260000
Br81	Br	0.744300	0.228300	0.915500	-0.0551260000
Br82	Br	0.710700	0.280700	0.172900	-0.0551260000
Br83	Br	0.617210	0.380070	0.119090	-0.0551260000
Br84	Br	0.629700	0.321800	0.911800	-0.0551260000
Br85	Br	0.255700	0.728300	0.584500	-0.0551260000
Br86	Br	0.289300	0.780700	0.327100	-0.0551260000
Br87	Br	0.382790	0.880070	0.380910	-0.0551260000
Br88	Br	0.370300	0.821800	0.588200	-0.0551260000
Br89	Br	0.244300	0.271700	0.084500	-0.0551260000
Br90	Br	0.210700	0.219300	0.827100	-0.0551260000
Br91	Br	0.117210	0.119930	0.880910	-0.0551260000
Br92	Br	0.129700	0.178200	0.088200	-0.0551260000
Br93	Br	0.755700	0.771700	0.415500	-0.0551260000
Br94	Br	0.789300	0.719300	0.672900	-0.0551260000
Br95	Br	0.882790	0.619930	0.619090	-0.0551260000
Br96	Br	0.870300	0.678200	0.411800	-0.0551260000
N1	N	0.930400	0.349100	0.718700	-0.4127590000
N2	N	0.938500	0.296000	0.664000	-0.4127590000
N3	N	0.005900	0.287400	0.686100	-0.4127590000
N4	N	0.998700	0.335600	0.737400	-0.4127590000
N5	N	0.569600	0.650900	0.218700	-0.4127590000
N6	N	0.561500	0.704000	0.164000	-0.4127590000
N7	N	0.494100	0.712600	0.186100	-0.4127590000
N8	N	0.501300	0.664400	0.237400	-0.4127590000
N9	N	0.069600	0.849100	0.781300	-0.4127590000
N10	N	0.061500	0.796000	0.836000	-0.4127590000
N11	N	0.994100	0.787400	0.813900	-0.4127590000
N12	N	0.001300	0.835600	0.762600	-0.4127590000
N13	N	0.430400	0.150900	0.281300	-0.4127590000
N14	N	0.438500	0.204000	0.336000	-0.4127590000
N15	N	0.505900	0.212600	0.313900	-0.4127590000
N16	N	0.498700	0.164400	0.262600	-0.4127590000
N17	N	0.718700	0.930400	0.349100	-0.4127590000
N18	N	0.664000	0.938500	0.296000	-0.4127590000
N19	N	0.686100	0.005900	0.287400	-0.4127590000
N20	N	0.737400	0.998700	0.335600	-0.4127590000
N21	N	0.218700	0.569600	0.650900	-0.4127590000
N22	N	0.164000	0.561500	0.704000	-0.4127590000
N23	N	0.186100	0.494100	0.712600	-0.4127590000
N24	N	0.237400	0.501300	0.664400	-0.4127590000
N25	N	0.781300	0.069600	0.849100	-0.4127590000
N26	N	0.836000	0.061500	0.796000	-0.4127590000
N27	N	0.813900	0.994100	0.787400	-0.4127590000
N28	N	0.762600	0.001300	0.835600	-0.4127590000
N29	N	0.281300	0.430400	0.150900	-0.4127590000
N30	N	0.336000	0.438500	0.204000	-0.4127590000
N31	N	0.313900	0.505900	0.212600	-0.4127590000
N32	N	0.262600	0.498700	0.164400	-0.4127590000
N33	N	0.349100	0.718700	0.930400	-0.4127590000
N34	N	0.296000	0.664000	0.938500	-0.4127590000
N35	N	0.287400	0.686100	0.005900	-0.4127590000
N36	N	0.335600	0.737400	0.998700	-0.4127590000
N37	N	0.650900	0.218700	0.569600	-0.4127590000
N38	N	0.704000	0.164000	0.561500	-0.4127590000
N39	N	0.712600	0.186100	0.494100	-0.4127590000
N40	N	0.664400	0.237400	0.501300	-0.4127590000
N41	N	0.849100	0.781300	0.069600	-0.4127590000
N42	N	0.796000	0.836000	0.061500	-0.4127590000
N43	N	0.787400	0.813900	0.994100	-0.4127590000
N44	N	0.835600	0.762600	0.001300	-0.4127590000
N45	N	0.150900	0.281300	0.430400	-0.4127590000
N46	N	0.204000	0.336000	0.438500	-0.4127590000
N47	N	0.212600	0.313900	0.505900	-0.4127590000
N48	N	0.164400	0.262600	0.498700	-0.4127590000
N49	N	0.069600	0.650900	0.281300	-0.4127590000
N50	N	0.061500	0.704000	0.336000	-0.4127590000
N51	N	0.994100	0.712600	0.313900	-0.4127590000
N52	N	0.001300	0.664400	0.262600	-0.4127590000
N53	N	0.430400	0.349100	0.781300	-0.4127590000
N54	N	0.438500	0.296000	0.836000	-0.4127590000
N55	N	0.505900	0.287400	0.813900	-0.4127590000
N56	N	0.498700	0.335600	0.762600	-0.4127590000
N57	N	0.930400	0.150900	0.218700	-0.4127590000
N58	N	0.938500	0.204000	0.164000	-0.4127590000
N59	N	0.005900	0.212600	0.186100	-0.4127590000
N60	N	0.998700	0.164400	0.237400	-0.4127590000
N61	N	0.569600	0.849100	0.718700	-0.4127590000
N62	N	0.561500	0.796000	0.664000	-0.4127590000
N63	N	0.494100	0.787400	0.686100	-0.4127590000
N64	N	0.501300	0.835600	0.737400	-0.4127590000
N65	N	0.281300	0.069600	0.650900	-0.4127590000
N66	N	0.336000	0.061500	0.704000	-0.4127590000
N67	N	0.313900	0.994100	0.712600	-0.4127590000
N68	N	0.262600	0.001300	0.664400	-0.4127590000
N69	N	0.781300	0.430400	0.349100	-0.4127590000
N70	N	0.836000	0.438500	0.296000	-0.4127590000
N71	N	0.813900	0.505900	0.287400	-0.4127590000
N72	N	0.762600	0.498700	0.335600	-0.4127590000
N73	N	0.218700	0.930400	0.150900	-0.4127590000
N74	N	0.164000	0.938500	0.204000	-0.4127590000
N75	N	0.186100	0.005900	0.212600	-0.4127590000
N76	N	0.237400	0.998700	0.164400	-0.4127590000
N77	N	0.718700	0.569600	0.849100	-0.4127590000
N78	N	0.664000	0.561500	0.796000	-0.4127590000
N79	N	0.686100	0.494100	0.787400	-0.4127590000
N80	N	0.737400	0.501300	0.835600	-0.4127590000
N81	N	0.650900	0.281300	0.069600	-0.4127590000
N82	N	0.704000	0.336000	0.061500	-0.4127590000
N83	N	0.712600	0.313900	0.994100	-0.4127590000
N84	N	0.664400	0.262600	0.001300	-0.4127590000
N85	N	0.349100	0.781300	0.430400	-0.4127590000
N86	N	0.296000	0.836000	0.438500	-0.4127590000
N87	N	0.287400	0.813900	0.505900	-0.4127590000
N88	N	0.335600	0.762600	0.498700	-0.4127590000
N89	N	0.150900	0.218700	0.930400	-0.4127590000
N90	N	0.204000	0.164000	0.938500	-0.4127590000
N91	N	0.212600	0.186100	0.005900	-0.4127590000
N92	N	0.164400	0.237400	0.998700	-0.4127590000
N93	N	0.849100	0.718700	0.569600	-0.4127590000
N94	N	0.796000	0.664000	0.561500	-0.4127590000
N95	N	0.787400	0.686100	0.494100	-0.4127590000
N96	N	0.835600	0.737400	0.501300	-0.4127590000
O1	O	0.952300	0.211400	0.521180	-0.6307250000
O2	O	0.961720	0.154540	0.521330	-0.5834860000
O3	O	0.010720	0.098600	0.621950	-0.5954760000
O4	O	0.012200	0.126400	0.671700	-0.5643360000
O5	O	0.926400	0.342400	0.896110	-0.5643360000
O6	O	0.941890	0.388780	0.925810	-0.5954760000
O7	O	0.958790	0.498770	0.858670	-0.5834860000
O8	O	0.960500	0.494230	0.802140	-0.6307250000
O9	O	0.933480	0.316800	0.956160	-0.6902560000
O10	O	0.547700	0.788600	0.021180	-0.6307250000
O11	O	0.538280	0.845460	0.021330	-0.5834860000
O12	O	0.489280	0.901400	0.121950	-0.5954760000
O13	O	0.487800	0.873600	0.171700	-0.5643360000
O14	O	0.573600	0.657600	0.396110	-0.5643360000
O15	O	0.558110	0.611220	0.425810	-0.5954760000
O16	O	0.541210	0.501230	0.358670	-0.5834860000
O17	O	0.539500	0.505770	0.302140	-0.6307250000
O18	O	0.566520	0.683200	0.456160	-0.6902560000
O19	O	0.047700	0.711400	0.978820	-0.6307250000
O20	O	0.038280	0.654540	0.978670	-0.5834860000
O21	O	0.989280	0.598600	0.878050	-0.5954760000
O22	O	0.987800	0.626400	0.828300	-0.5643360000
O23	O	0.073600	0.842400	0.603890	-0.5643360000
O24	O	0.058110	0.888780	0.574190	-0.5954760000
O25	O	0.041210	0.998770	0.641330	-0.5834860000
O26	O	0.039500	0.994230	0.697860	-0.6307250000
O27	O	0.066520	0.816800	0.543840	-0.6902560000
O28	O	0.452300	0.288600	0.478820	-0.6307250000
O29	O	0.461720	0.345460	0.478670	-0.5834860000
O30	O	0.510720	0.401400	0.378050	-0.5954760000
O31	O	0.512200	0.373600	0.328300	-0.5643360000
O32	O	0.426400	0.157600	0.103890	-0.5643360000
O33	O	0.441890	0.111220	0.074190	-0.5954760000
O34	O	0.458790	0.001230	0.141330	-0.5834860000
O35	O	0.460500	0.005770	0.197860	-0.6307250000
O36	O	0.433480	0.183200	0.043840	-0.6902560000
O37	O	0.521180	0.952300	0.211400	-0.6307250000
O38	O	0.521330	0.961720	0.154540	-0.5834860000
O39	O	0.621950	0.010720	0.098600	-0.5954760000
O40	O	0.671700	0.012200	0.126400	-0.5643360000
O41	O	0.896110	0.926400	0.342400	-0.5643360000
O42	O	0.925810	0.941890	0.388780	-0.5954760000
O43	O	0.858670	0.958790	0.498770	-0.5834860000
O44	O	0.802140	0.960500	0.494230	-0.6307250000
O45	O	0.956160	0.933480	0.316800	-0.6902560000
O46	O	0.021180	0.547700	0.788600	-0.6307250000
O47	O	0.021330	0.538280	0.845460	-0.5834860000
O48	O	0.121950	0.489280	0.901400	-0.5954760000
O49	O	0.171700	0.487800	0.873600	-0.5643360000
O50	O	0.396110	0.573600	0.657600	-0.5643360000
O51	O	0.425810	0.558110	0.611220	-0.5954760000
O52	O	0.358670	0.541210	0.501230	-0.5834860000
O53	O	0.302140	0.539500	0.505770	-0.6307250000
O54	O	0.456160	0.566520	0.683200	-0.6902560000
O55	O	0.978820	0.047700	0.711400	-0.6307250000
O56	O	0.978670	0.038280	0.654540	-0.5834860000
O57	O	0.878050	0.989280	0.598600	-0.5954760000
O58	O	0.828300	0.987800	0.626400	-0.5643360000
O59	O	0.603890	0.073600	0.842400	-0.5643360000
O60	O	0.574190	0.058110	0.888780	-0.5954760000
O61	O	0.641330	0.041210	0.998770	-0.5834860000
O62	O	0.697860	0.039500	0.994230	-0.6307250000
O63	O	0.543840	0.066520	0.816800	-0.6902560000
O64	O	0.478820	0.452300	0.288600	-0.6307250000
O65	O	0.478670	0.461720	0.345460	-0.5834860000
O66	O	0.378050	0.510720	0.401400	-0.5954760000
O67	O	0.328300	0.512200	0.373600	-0.5643360000
O68	O	0.103890	0.426400	0.157600	-0.5643360000
O69	O	0.074190	0.441890	0.111220	-0.5954760000
O70	O	0.141330	0.458790	0.001230	-0.5834860000
O71	O	0.197860	0.460500	0.005770	-0.6307250000
O72	O	0.043840	0.433480	0.183200	-0.6902560000
O73	O	0.211400	0.521180	0.952300	-0.6307250000
O74	O	0.154540	0.521330	0.961720	-0.5834860000
O75	O	0.098600	0.621950	0.010720	-0.5954760000
O76	O	0.126400	0.671700	0.012200	-0.5643360000
O77	O	0.342400	0.896110	0.926400	-0.5643360000
O78	O	0.388780	0.925810	0.941890	-0.5954760000
O79	O	0.498770	0.858670	0.958790	-0.5834860000
O80	O	0.494230	0.802140	0.960500	-0.6307250000
O81	O	0.316800	0.956160	0.933480	-0.6902560000
O82	O	0.788600	0.021180	0.547700	-0.6307250000
O83	O	0.845460	0.021330	0.538280	-0.5834860000
O84	O	0.901400	0.121950	0.489280	-0.5954760000
O85	O	0.873600	0.171700	0.487800	-0.5643360000
O86	O	0.657600	0.396110	0.573600	-0.5643360000
O87	O	0.611220	0.425810	0.558110	-0.5954760000
O88	O	0.501230	0.358670	0.541210	-0.5834860000
O89	O	0.505770	0.302140	0.539500	-0.6307250000
O90	O	0.683200	0.456160	0.566520	-0.6902560000
O91	O	0.711400	0.978820	0.047700	-0.6307250000
O92	O	0.654540	0.978670	0.038280	-0.5834860000
O93	O	0.598600	0.878050	0.989280	-0.5954760000
O94	O	0.626400	0.828300	0.987800	-0.5643360000
O95	O	0.842400	0.603890	0.073600	-0.5643360000
O96	O	0.888780	0.574190	0.058110	-0.5954760000
O97	O	0.998770	0.641330	0.041210	-0.5834860000
O98	O	0.994230	0.697860	0.039500	-0.6307250000
O99	O	0.816800	0.543840	0.066520	-0.6902560000
O100	O	0.288600	0.478820	0.452300	-0.6307250000
O101	O	0.345460	0.478670	0.461720	-0.5834860000
O102	O	0.401400	0.378050	0.510720	-0.5954760000
O103	O	0.373600	0.328300	0.512200	-0.5643360000
O104	O	0.157600	0.103890	0.426400	-0.5643360000
O105	O	0.111220	0.074190	0.441890	-0.5954760000
O106	O	0.001230	0.141330	0.458790	-0.5834860000
O107	O	0.005770	0.197860	0.460500	-0.6307250000
O108	O	0.183200	0.043840	0.433480	-0.6902560000
O109	O	0.047700	0.788600	0.478820	-0.6307250000
O110	O	0.038280	0.845460	0.478670	-0.5834860000
O111	O	0.989280	0.901400	0.378050	-0.5954760000
O112	O	0.987800	0.873600	0.328300	-0.5643360000
O113	O	0.073600	0.657600	0.103890	-0.5643360000
O114	O	0.058110	0.611220	0.074190	-0.5954760000
O115	O	0.041210	0.501230	0.141330	-0.5834860000
O116	O	0.039500	0.505770	0.197860	-0.6307250000
O117	O	0.066520	0.683200	0.043840	-0.6902560000
O118	O	0.452300	0.211400	0.978820	-0.6307250000
O119	O	0.461720	0.154540	0.978670	-0.5834860000
O120	O	0.510720	0.098600	0.878050	-0.5954760000
O121	O	0.512200	0.126400	0.828300	-0.5643360000
O122	O	0.426400	0.342400	0.603890	-0.5643360000
O123	O	0.441890	0.388780	0.574190	-0.5954760000
O124	O	0.458790	0.498770	0.641330	-0.5834860000
O125	O	0.460500	0.494230	0.697860	-0.6307250000
O126	O	0.433480	0.316800	0.543840	-0.6902560000
O127	O	0.952300	0.288600	0.021180	-0.6307250000
O128	O	0.961720	0.345460	0.021330	-0.5834860000
O129	O	0.010720	0.401400	0.121950	-0.5954760000
O130	O	0.012200	0.373600	0.171700	-0.5643360000
O131	O	0.926400	0.157600	0.396110	-0.5643360000
O132	O	0.941890	0.111220	0.425810	-0.5954760000
O133	O	0.958790	0.001230	0.358670	-0.5834860000
O134	O	0.960500	0.005770	0.302140	-0.6307250000
O135	O	0.933480	0.183200	0.456160	-0.6902560000
O136	O	0.547700	0.711400	0.521180	-0.6307250000
O137	O	0.538280	0.654540	0.521330	-0.5834860000
O138	O	0.489280	0.598600	0.621950	-0.5954760000
O139	O	0.487800	0.626400	0.671700	-0.5643360000
O140	O	0.573600	0.842400	0.896110	-0.5643360000
O141	O	0.558110	0.888780	0.925810	-0.5954760000
O142	O	0.541210	0.998770	0.858670	-0.5834860000
O143	O	0.539500	0.994230	0.802140	-0.6307250000
O144	O	0.566520	0.816800	0.956160	-0.6902560000
O145	O	0.478820	0.047700	0.788600	-0.6307250000
O146	O	0.478670	0.038280	0.845460	-0.5834860000
O147	O	0.378050	0.989280	0.901400	-0.5954760000
O148	O	0.328300	0.987800	0.873600	-0.5643360000
O149	O	0.103890	0.073600	0.657600	-0.5643360000
O150	O	0.074190	0.058110	0.611220	-0.5954760000
O151	O	0.141330	0.041210	0.501230	-0.5834860000
O152	O	0.197860	0.039500	0.505770	-0.6307250000
O153	O	0.043840	0.066520	0.683200	-0.6902560000
O154	O	0.978820	0.452300	0.211400	-0.6307250000
O155	O	0.978670	0.461720	0.154540	-0.5834860000
O156	O	0.878050	0.510720	0.098600	-0.5954760000
O157	O	0.828300	0.512200	0.126400	-0.5643360000
O158	O	0.603890	0.426400	0.342400	-0.5643360000
O159	O	0.574190	0.441890	0.388780	-0.5954760000
O160	O	0.641330	0.458790	0.498770	-0.5834860000
O161	O	0.697860	0.460500	0.494230	-0.6307250000
O162	O	0.543840	0.433480	0.316800	-0.6902560000
O163	O	0.021180	0.952300	0.288600	-0.6307250000
O164	O	0.021330	0.961720	0.345460	-0.5834860000
O165	O	0.121950	0.010720	0.401400	-0.5954760000
O166	O	0.171700	0.012200	0.373600	-0.5643360000
O167	O	0.396110	0.926400	0.157600	-0.5643360000
O168	O	0.425810	0.941890	0.111220	-0.5954760000
O169	O	0.358670	0.958790	0.001230	-0.5834860000
O170	O	0.302140	0.960500	0.005770	-0.6307250000
O171	O	0.456160	0.933480	0.183200	-0.6902560000
O172	O	0.521180	0.547700	0.711400	-0.6307250000
O173	O	0.521330	0.538280	0.654540	-0.5834860000
O174	O	0.621950	0.489280	0.598600	-0.5954760000
O175	O	0.671700	0.487800	0.626400	-0.5643360000
O176	O	0.896110	0.573600	0.842400	-0.5643360000
O177	O	0.925810	0.558110	0.888780	-0.5954760000
O178	O	0.858670	0.541210	0.998770	-0.5834860000
O179	O	0.802140	0.539500	0.994230	-0.6307250000
O180	O	0.956160	0.566520	0.816800	-0.6902560000
O181	O	0.788600	0.478820	0.047700	-0.6307250000
O182	O	0.845460	0.478670	0.038280	-0.5834860000
O183	O	0.901400	0.378050	0.989280	-0.5954760000
O184	O	0.873600	0.328300	0.987800	-0.5643360000
O185	O	0.657600	0.103890	0.073600	-0.5643360000
O186	O	0.611220	0.074190	0.058110	-0.5954760000
O187	O	0.501230	0.141330	0.041210	-0.5834860000
O188	O	0.505770	0.197860	0.039500	-0.6307250000
O189	O	0.683200	0.043840	0.066520	-0.6902560000
O190	O	0.211400	0.978820	0.452300	-0.6307250000
O191	O	0.154540	0.978670	0.461720	-0.5834860000
O192	O	0.098600	0.878050	0.510720	-0.5954760000
O193	O	0.126400	0.828300	0.512200	-0.5643360000
O194	O	0.342400	0.603890	0.426400	-0.5643360000
O195	O	0.388780	0.574190	0.441890	-0.5954760000
O196	O	0.498770	0.641330	0.458790	-0.5834860000
O197	O	0.494230	0.697860	0.460500	-0.6307250000
O198	O	0.316800	0.543840	0.433480	-0.6902560000
O199	O	0.288600	0.021180	0.952300	-0.6307250000
O200	O	0.345460	0.021330	0.961720	-0.5834860000
O201	O	0.401400	0.121950	0.010720	-0.5954760000
O202	O	0.373600	0.171700	0.012200	-0.5643360000
O203	O	0.157600	0.396110	0.926400	-0.5643360000
O204	O	0.111220	0.425810	0.941890	-0.5954760000
O205	O	0.001230	0.358670	0.958790	-0.5834860000
O206	O	0.005770	0.302140	0.960500	-0.6307250000
O207	O	0.183200	0.456160	0.933480	-0.6902560000
O208	O	0.711400	0.521180	0.547700	-0.6307250000
O209	O	0.654540	0.521330	0.538280	-0.5834860000
O210	O	0.598600	0.621950	0.489280	-0.5954760000
O211	O	0.626400	0.671700	0.487800	-0.5643360000
O212	O	0.842400	0.896110	0.573600	-0.5643360000
O213	O	0.888780	0.925810	0.558110	-0.5954760000
O214	O	0.998770	0.858670	0.541210	-0.5834860000
O215	O	0.994230	0.802140	0.539500	-0.6307250000
O216	O	0.816800	0.956160	0.566520	-0.6902560000
