data_symmetry_test_structure_PM
_symmetry_space_group_name_H-M	'R -3'
_cell_length_a	25.517700
_cell_length_b	25.517700
_cell_length_c	6.966100
_cell_angle_alpha	90.000000
_cell_angle_beta	90.000000
_cell_angle_gamma	120.000000
_symmetry_Int_Tables_number 1

loop_
_symmetry_equiv_pos_as_xyz
'+x,+y,+z'
'-y,x-y,+z'
'y-x,-x,+z'
'-x,-y,-z'
'+y,y-x,-z'
'x-y,+x,-z'
'+x+1/3,+y+2/3,+z+2/3'
'-y+1/3,x-y+2/3,+z+2/3'
'y-x+1/3,-x+2/3,+z+2/3'
'-x+2/3,-y+1/3,-z+1/3'
'+y+2/3,y-x+1/3,-z+1/3'
'x-y+2/3,+x+1/3,-z+1/3'
'+x+2/3,+y+1/3,+z+1/3'
'-y+2/3,x-y+1/3,+z+1/3'
'y-x+2/3,-x+1/3,+z+1/3'
'-x+1/3,-y+2/3,-z+2/3'
'+y+1/3,y-x+2/3,-z+2/3'
'x-y+1/3,+x+2/3,-z+2/3'

loop_
_atom_site_label
_atom_site_type_symbol
_atom_site_fract_x
_atom_site_fract_y
_atom_site_fract_z
Fe1	Fe	0.388730	0.352620	0.147700
O1	O	0.318200	0.295100	0.350000
O2	O	0.306800	0.231800	0.589400
O3	O	0.354500	0.275800	0.000900
C1	C	0.318900	0.248900	0.414400
C2	C	0.327600	0.207100	0.278000
C3	C	0.344400	0.222400	0.083900
C4	C	0.351200	0.180600	0.972300
H1	H	0.359600	0.186100	0.824500
O4	O	0.559100	0.669900	0.677500
O5	O	0.523600	0.631700	0.795500
O6	O	0.513400	0.674700	0.247000
O7	O	0.529500	0.724400	0.308700
O8	O	0.059000	0.136200	0.967000
O9	O	0.081000	0.183000	0.879000
